# MODFLOW-NWT MNW2 Package 
# File generated on 12/15/2015 17:13:16
5127 50 2                           ; 1.    MNWMAX,IWL2CB,MNWPRNT
9     -1                    ; 2a.   WELLID,NNODES
SKIN 0 0 0 0                        ; 2b.   LOSSTYPE,PUMPLOC,QLIMIT,PPFLAG,PUMPCAP
0.5 1.0 20.0                        ; 2c.   Rw,Rskin,Kskin
706.0 681.0 877 164                 ; 2d.   ztop,zbotm,row,col
12    -1                    ; 2a.   WELLID,NNODES
SKIN 0 0 0 0                        ; 2b.   LOSSTYPE,PUMPLOC,QLIMIT,PPFLAG,PUMPCAP
0.5 1.0 20.0                        ; 2c.   Rw,Rskin,Kskin
751.0 743.0 735 135                 ; 2d.   ztop,zbotm,row,col
13    -1                    ; 2a.   WELLID,NNODES
SKIN 0 0 0 0                        ; 2b.   LOSSTYPE,PUMPLOC,QLIMIT,PPFLAG,PUMPCAP
0.5 1.0 20.0                        ; 2c.   Rw,Rskin,Kskin
758.0 753.356689453 735 134                 ; 2d.   ztop,zbotm,row,col
14    -1                    ; 2a.   WELLID,NNODES
SKIN 0 0 0 0                        ; 2b.   LOSSTYPE,PUMPLOC,QLIMIT,PPFLAG,PUMPCAP
0.5 1.0 20.0                        ; 2c.   Rw,Rskin,Kskin
753.296691895 752.296691895 736 134                 ; 2d.   ztop,zbotm,row,col
15    -1                    ; 2a.   WELLID,NNODES
SKIN 0 0 0 0                        ; 2b.   LOSSTYPE,PUMPLOC,QLIMIT,PPFLAG,PUMPCAP
0.5 1.0 20.0                        ; 2c.   Rw,Rskin,Kskin
1484.0 1474.0 227 248                 ; 2d.   ztop,zbotm,row,col
16    -1                    ; 2a.   WELLID,NNODES
SKIN 0 0 0 0                        ; 2b.   LOSSTYPE,PUMPLOC,QLIMIT,PPFLAG,PUMPCAP
0.5 1.0 20.0                        ; 2c.   Rw,Rskin,Kskin
1430.0 1422.0 228 249                 ; 2d.   ztop,zbotm,row,col
17    -1                    ; 2a.   WELLID,NNODES
SKIN 0 0 0 0                        ; 2b.   LOSSTYPE,PUMPLOC,QLIMIT,PPFLAG,PUMPCAP
0.5 1.0 20.0                        ; 2c.   Rw,Rskin,Kskin
1442.0 1430.0 228 249                 ; 2d.   ztop,zbotm,row,col
18    -1                    ; 2a.   WELLID,NNODES
SKIN 0 0 0 0                        ; 2b.   LOSSTYPE,PUMPLOC,QLIMIT,PPFLAG,PUMPCAP
0.5 1.0 20.0                        ; 2c.   Rw,Rskin,Kskin
1481.0 1477.0 228 249                 ; 2d.   ztop,zbotm,row,col
19    -1                    ; 2a.   WELLID,NNODES
SKIN 0 0 0 0                        ; 2b.   LOSSTYPE,PUMPLOC,QLIMIT,PPFLAG,PUMPCAP
0.5 1.0 20.0                        ; 2c.   Rw,Rskin,Kskin
1416.0 1397.0 228 249                 ; 2d.   ztop,zbotm,row,col
20    -1                    ; 2a.   WELLID,NNODES
SKIN 0 0 0 0                        ; 2b.   LOSSTYPE,PUMPLOC,QLIMIT,PPFLAG,PUMPCAP
0.5 1.0 20.0                        ; 2c.   Rw,Rskin,Kskin
1438.0 1404.0 228 249                 ; 2d.   ztop,zbotm,row,col
21    -1                    ; 2a.   WELLID,NNODES
SKIN 0 0 0 0                        ; 2b.   LOSSTYPE,PUMPLOC,QLIMIT,PPFLAG,PUMPCAP
0.5 1.0 20.0                        ; 2c.   Rw,Rskin,Kskin
1550.0 1528.0 230 247                 ; 2d.   ztop,zbotm,row,col
22    -1                    ; 2a.   WELLID,NNODES
SKIN 0 0 0 0                        ; 2b.   LOSSTYPE,PUMPLOC,QLIMIT,PPFLAG,PUMPCAP
0.5 1.0 20.0                        ; 2c.   Rw,Rskin,Kskin
1538.0 1503.0 230 247                 ; 2d.   ztop,zbotm,row,col
23    -1                    ; 2a.   WELLID,NNODES
SKIN 0 0 0 0                        ; 2b.   LOSSTYPE,PUMPLOC,QLIMIT,PPFLAG,PUMPCAP
0.5 1.0 20.0                        ; 2c.   Rw,Rskin,Kskin
1397.0 1384.0 228 249                 ; 2d.   ztop,zbotm,row,col
24    -1                    ; 2a.   WELLID,NNODES
SKIN 0 0 0 0                        ; 2b.   LOSSTYPE,PUMPLOC,QLIMIT,PPFLAG,PUMPCAP
0.5 1.0 20.0                        ; 2c.   Rw,Rskin,Kskin
1378.0 1364.0 227 248                 ; 2d.   ztop,zbotm,row,col
25    -1                    ; 2a.   WELLID,NNODES
SKIN 0 0 0 0                        ; 2b.   LOSSTYPE,PUMPLOC,QLIMIT,PPFLAG,PUMPCAP
0.5 1.0 20.0                        ; 2c.   Rw,Rskin,Kskin
817.0 757.272583008 693 44                 ; 2d.   ztop,zbotm,row,col
26    -1                    ; 2a.   WELLID,NNODES
SKIN 0 0 0 0                        ; 2b.   LOSSTYPE,PUMPLOC,QLIMIT,PPFLAG,PUMPCAP
0.5 1.0 20.0                        ; 2c.   Rw,Rskin,Kskin
515.0 485.0 498 639                 ; 2d.   ztop,zbotm,row,col
28    -1                    ; 2a.   WELLID,NNODES
SKIN 0 0 0 0                        ; 2b.   LOSSTYPE,PUMPLOC,QLIMIT,PPFLAG,PUMPCAP
0.5 1.0 20.0                        ; 2c.   Rw,Rskin,Kskin
1347.0 1341.0 291 243                 ; 2d.   ztop,zbotm,row,col
29    -1                    ; 2a.   WELLID,NNODES
SKIN 0 0 0 0                        ; 2b.   LOSSTYPE,PUMPLOC,QLIMIT,PPFLAG,PUMPCAP
0.5 1.0 20.0                        ; 2c.   Rw,Rskin,Kskin
657.487670898 545.0 263 470                 ; 2d.   ztop,zbotm,row,col
30    -1                    ; 2a.   WELLID,NNODES
SKIN 0 0 0 0                        ; 2b.   LOSSTYPE,PUMPLOC,QLIMIT,PPFLAG,PUMPCAP
0.5 1.0 20.0                        ; 2c.   Rw,Rskin,Kskin
525.401916504 362.0 713 600                 ; 2d.   ztop,zbotm,row,col
31    -1                    ; 2a.   WELLID,NNODES
SKIN 0 0 0 0                        ; 2b.   LOSSTYPE,PUMPLOC,QLIMIT,PPFLAG,PUMPCAP
0.5 1.0 20.0                        ; 2c.   Rw,Rskin,Kskin
725.0 673.0 523 398                 ; 2d.   ztop,zbotm,row,col
32    -1                    ; 2a.   WELLID,NNODES
SKIN 0 0 0 0                        ; 2b.   LOSSTYPE,PUMPLOC,QLIMIT,PPFLAG,PUMPCAP
0.5 1.0 20.0                        ; 2c.   Rw,Rskin,Kskin
733.0 693.0 523 398                 ; 2d.   ztop,zbotm,row,col
33    -1                    ; 2a.   WELLID,NNODES
SKIN 0 0 0 0                        ; 2b.   LOSSTYPE,PUMPLOC,QLIMIT,PPFLAG,PUMPCAP
0.5 1.0 20.0                        ; 2c.   Rw,Rskin,Kskin
548.61340332 478.089904785 523 398                 ; 2d.   ztop,zbotm,row,col
34    -1                    ; 2a.   WELLID,NNODES
SKIN 0 0 0 0                        ; 2b.   LOSSTYPE,PUMPLOC,QLIMIT,PPFLAG,PUMPCAP
0.5 1.0 20.0                        ; 2c.   Rw,Rskin,Kskin
753.0 606.0 756 286                 ; 2d.   ztop,zbotm,row,col
35    -1                    ; 2a.   WELLID,NNODES
SKIN 0 0 0 0                        ; 2b.   LOSSTYPE,PUMPLOC,QLIMIT,PPFLAG,PUMPCAP
0.5 1.0 20.0                        ; 2c.   Rw,Rskin,Kskin
551.0 303.0 505 630                 ; 2d.   ztop,zbotm,row,col
36    -1                    ; 2a.   WELLID,NNODES
SKIN 0 0 0 0                        ; 2b.   LOSSTYPE,PUMPLOC,QLIMIT,PPFLAG,PUMPCAP
0.5 1.0 20.0                        ; 2c.   Rw,Rskin,Kskin
546.0 247.0 504 630                 ; 2d.   ztop,zbotm,row,col
37    -1                    ; 2a.   WELLID,NNODES
SKIN 0 0 0 0                        ; 2b.   LOSSTYPE,PUMPLOC,QLIMIT,PPFLAG,PUMPCAP
0.5 1.0 20.0                        ; 2c.   Rw,Rskin,Kskin
1500.5 1490.0 256 197                 ; 2d.   ztop,zbotm,row,col
38    -1                    ; 2a.   WELLID,NNODES
SKIN 0 0 0 0                        ; 2b.   LOSSTYPE,PUMPLOC,QLIMIT,PPFLAG,PUMPCAP
0.5 1.0 20.0                        ; 2c.   Rw,Rskin,Kskin
475.0 455.0 635 619                 ; 2d.   ztop,zbotm,row,col
39    -1                    ; 2a.   WELLID,NNODES
SKIN 0 0 0 0                        ; 2b.   LOSSTYPE,PUMPLOC,QLIMIT,PPFLAG,PUMPCAP
0.5 1.0 20.0                        ; 2c.   Rw,Rskin,Kskin
664.0 560.0 867 139                 ; 2d.   ztop,zbotm,row,col
40    -1                    ; 2a.   WELLID,NNODES
SKIN 0 0 0 0                        ; 2b.   LOSSTYPE,PUMPLOC,QLIMIT,PPFLAG,PUMPCAP
0.5 1.0 20.0                        ; 2c.   Rw,Rskin,Kskin
703.666259766 549.460327148 867 140                 ; 2d.   ztop,zbotm,row,col
41    -1                    ; 2a.   WELLID,NNODES
SKIN 0 0 0 0                        ; 2b.   LOSSTYPE,PUMPLOC,QLIMIT,PPFLAG,PUMPCAP
0.5 1.0 20.0                        ; 2c.   Rw,Rskin,Kskin
698.525878906 551.989074707 867 139                 ; 2d.   ztop,zbotm,row,col
42    -1                    ; 2a.   WELLID,NNODES
SKIN 0 0 0 0                        ; 2b.   LOSSTYPE,PUMPLOC,QLIMIT,PPFLAG,PUMPCAP
0.5 1.0 20.0                        ; 2c.   Rw,Rskin,Kskin
790.113637695 790.103637695 768 48                 ; 2d.   ztop,zbotm,row,col
43    -1                    ; 2a.   WELLID,NNODES
SKIN 0 0 0 0                        ; 2b.   LOSSTYPE,PUMPLOC,QLIMIT,PPFLAG,PUMPCAP
0.5 1.0 20.0                        ; 2c.   Rw,Rskin,Kskin
798.203725586 798.193725586 768 49                 ; 2d.   ztop,zbotm,row,col
44    -1                    ; 2a.   WELLID,NNODES
SKIN 0 0 0 0                        ; 2b.   LOSSTYPE,PUMPLOC,QLIMIT,PPFLAG,PUMPCAP
0.5 1.0 20.0                        ; 2c.   Rw,Rskin,Kskin
687.0 667.0 798 144                 ; 2d.   ztop,zbotm,row,col
45    -1                    ; 2a.   WELLID,NNODES
SKIN 0 0 0 0                        ; 2b.   LOSSTYPE,PUMPLOC,QLIMIT,PPFLAG,PUMPCAP
0.5 1.0 20.0                        ; 2c.   Rw,Rskin,Kskin
605.524291992 604.524291992 798 144                 ; 2d.   ztop,zbotm,row,col
46    -1                    ; 2a.   WELLID,NNODES
SKIN 0 0 0 0                        ; 2b.   LOSSTYPE,PUMPLOC,QLIMIT,PPFLAG,PUMPCAP
0.5 1.0 20.0                        ; 2c.   Rw,Rskin,Kskin
687.0 667.0 798 144                 ; 2d.   ztop,zbotm,row,col
47    -1                    ; 2a.   WELLID,NNODES
SKIN 0 0 0 0                        ; 2b.   LOSSTYPE,PUMPLOC,QLIMIT,PPFLAG,PUMPCAP
0.5 1.0 20.0                        ; 2c.   Rw,Rskin,Kskin
687.0 667.0 798 144                 ; 2d.   ztop,zbotm,row,col
48    -1                    ; 2a.   WELLID,NNODES
SKIN 0 0 0 0                        ; 2b.   LOSSTYPE,PUMPLOC,QLIMIT,PPFLAG,PUMPCAP
0.5 1.0 20.0                        ; 2c.   Rw,Rskin,Kskin
653.0 644.0 798 144                 ; 2d.   ztop,zbotm,row,col
49    -1                    ; 2a.   WELLID,NNODES
SKIN 0 0 0 0                        ; 2b.   LOSSTYPE,PUMPLOC,QLIMIT,PPFLAG,PUMPCAP
0.5 1.0 20.0                        ; 2c.   Rw,Rskin,Kskin
648.0 643.0 798 144                 ; 2d.   ztop,zbotm,row,col
52    -1                    ; 2a.   WELLID,NNODES
SKIN 0 0 0 0                        ; 2b.   LOSSTYPE,PUMPLOC,QLIMIT,PPFLAG,PUMPCAP
0.5 1.0 20.0                        ; 2c.   Rw,Rskin,Kskin
1415.0 1410.0 287 239                 ; 2d.   ztop,zbotm,row,col
53    -1                    ; 2a.   WELLID,NNODES
SKIN 0 0 0 0                        ; 2b.   LOSSTYPE,PUMPLOC,QLIMIT,PPFLAG,PUMPCAP
0.5 1.0 20.0                        ; 2c.   Rw,Rskin,Kskin
1408.0 1403.0 287 239                 ; 2d.   ztop,zbotm,row,col
54    -1                    ; 2a.   WELLID,NNODES
SKIN 0 0 0 0                        ; 2b.   LOSSTYPE,PUMPLOC,QLIMIT,PPFLAG,PUMPCAP
0.5 1.0 20.0                        ; 2c.   Rw,Rskin,Kskin
1408.0 1402.0 287 239                 ; 2d.   ztop,zbotm,row,col
55    -1                    ; 2a.   WELLID,NNODES
SKIN 0 0 0 0                        ; 2b.   LOSSTYPE,PUMPLOC,QLIMIT,PPFLAG,PUMPCAP
0.5 1.0 20.0                        ; 2c.   Rw,Rskin,Kskin
1400.0 1395.0 287 239                 ; 2d.   ztop,zbotm,row,col
56    -1                    ; 2a.   WELLID,NNODES
SKIN 0 0 0 0                        ; 2b.   LOSSTYPE,PUMPLOC,QLIMIT,PPFLAG,PUMPCAP
0.5 1.0 20.0                        ; 2c.   Rw,Rskin,Kskin
1406.0 1386.0 287 239                 ; 2d.   ztop,zbotm,row,col
57    -1                    ; 2a.   WELLID,NNODES
SKIN 0 0 0 0                        ; 2b.   LOSSTYPE,PUMPLOC,QLIMIT,PPFLAG,PUMPCAP
0.5 1.0 20.0                        ; 2c.   Rw,Rskin,Kskin
1408.0 1388.0 287 239                 ; 2d.   ztop,zbotm,row,col
58    -1                    ; 2a.   WELLID,NNODES
SKIN 0 0 0 0                        ; 2b.   LOSSTYPE,PUMPLOC,QLIMIT,PPFLAG,PUMPCAP
0.5 1.0 20.0                        ; 2c.   Rw,Rskin,Kskin
1365.0 1345.0 287 239                 ; 2d.   ztop,zbotm,row,col
59    -1                    ; 2a.   WELLID,NNODES
SKIN 0 0 0 0                        ; 2b.   LOSSTYPE,PUMPLOC,QLIMIT,PPFLAG,PUMPCAP
0.5 1.0 20.0                        ; 2c.   Rw,Rskin,Kskin
1450.82995605 1324.99694824 287 239                 ; 2d.   ztop,zbotm,row,col
60    -1                    ; 2a.   WELLID,NNODES
SKIN 0 0 0 0                        ; 2b.   LOSSTYPE,PUMPLOC,QLIMIT,PPFLAG,PUMPCAP
0.5 1.0 20.0                        ; 2c.   Rw,Rskin,Kskin
1411.0 1401.0 287 239                 ; 2d.   ztop,zbotm,row,col
61    -1                    ; 2a.   WELLID,NNODES
SKIN 0 0 0 0                        ; 2b.   LOSSTYPE,PUMPLOC,QLIMIT,PPFLAG,PUMPCAP
0.5 1.0 20.0                        ; 2c.   Rw,Rskin,Kskin
490.0 340.0 673 610                 ; 2d.   ztop,zbotm,row,col
64    -1                    ; 2a.   WELLID,NNODES
SKIN 0 0 0 0                        ; 2b.   LOSSTYPE,PUMPLOC,QLIMIT,PPFLAG,PUMPCAP
0.5 1.0 20.0                        ; 2c.   Rw,Rskin,Kskin
776.477905273 672.0 754 140                 ; 2d.   ztop,zbotm,row,col
65    -1                    ; 2a.   WELLID,NNODES
SKIN 0 0 0 0                        ; 2b.   LOSSTYPE,PUMPLOC,QLIMIT,PPFLAG,PUMPCAP
0.5 1.0 20.0                        ; 2c.   Rw,Rskin,Kskin
776.477905273 672.0 754 140                 ; 2d.   ztop,zbotm,row,col
66    -1                    ; 2a.   WELLID,NNODES
SKIN 0 0 0 0                        ; 2b.   LOSSTYPE,PUMPLOC,QLIMIT,PPFLAG,PUMPCAP
0.5 1.0 20.0                        ; 2c.   Rw,Rskin,Kskin
776.477905273 671.845397949 754 140                 ; 2d.   ztop,zbotm,row,col
67    -1                    ; 2a.   WELLID,NNODES
SKIN 0 0 0 0                        ; 2b.   LOSSTYPE,PUMPLOC,QLIMIT,PPFLAG,PUMPCAP
0.5 1.0 20.0                        ; 2c.   Rw,Rskin,Kskin
799.410766602 798.420776367 780 141                 ; 2d.   ztop,zbotm,row,col
68    -1                    ; 2a.   WELLID,NNODES
SKIN 0 0 0 0                        ; 2b.   LOSSTYPE,PUMPLOC,QLIMIT,PPFLAG,PUMPCAP
0.5 1.0 20.0                        ; 2c.   Rw,Rskin,Kskin
1173.0 1143.0 310 76                 ; 2d.   ztop,zbotm,row,col
69    -1                    ; 2a.   WELLID,NNODES
SKIN 0 0 0 0                        ; 2b.   LOSSTYPE,PUMPLOC,QLIMIT,PPFLAG,PUMPCAP
0.5 1.0 20.0                        ; 2c.   Rw,Rskin,Kskin
869.0 809.0 639 198                 ; 2d.   ztop,zbotm,row,col
70    -1                    ; 2a.   WELLID,NNODES
SKIN 0 0 0 0                        ; 2b.   LOSSTYPE,PUMPLOC,QLIMIT,PPFLAG,PUMPCAP
0.5 1.0 20.0                        ; 2c.   Rw,Rskin,Kskin
853.0 793.0 640 197                 ; 2d.   ztop,zbotm,row,col
71    -1                    ; 2a.   WELLID,NNODES
SKIN 0 0 0 0                        ; 2b.   LOSSTYPE,PUMPLOC,QLIMIT,PPFLAG,PUMPCAP
0.5 1.0 20.0                        ; 2c.   Rw,Rskin,Kskin
811.0 774.0 638 200                 ; 2d.   ztop,zbotm,row,col
72    -1                    ; 2a.   WELLID,NNODES
SKIN 0 0 0 0                        ; 2b.   LOSSTYPE,PUMPLOC,QLIMIT,PPFLAG,PUMPCAP
0.5 1.0 20.0                        ; 2c.   Rw,Rskin,Kskin
868.0 818.0 639 196                 ; 2d.   ztop,zbotm,row,col
73    -1                    ; 2a.   WELLID,NNODES
SKIN 0 0 0 0                        ; 2b.   LOSSTYPE,PUMPLOC,QLIMIT,PPFLAG,PUMPCAP
0.5 1.0 20.0                        ; 2c.   Rw,Rskin,Kskin
884.0 829.0 638 198                 ; 2d.   ztop,zbotm,row,col
74    -1                    ; 2a.   WELLID,NNODES
SKIN 0 0 0 0                        ; 2b.   LOSSTYPE,PUMPLOC,QLIMIT,PPFLAG,PUMPCAP
0.5 1.0 20.0                        ; 2c.   Rw,Rskin,Kskin
866.0 804.0 639 197                 ; 2d.   ztop,zbotm,row,col
75    -1                    ; 2a.   WELLID,NNODES
SKIN 0 0 0 0                        ; 2b.   LOSSTYPE,PUMPLOC,QLIMIT,PPFLAG,PUMPCAP
0.5 1.0 20.0                        ; 2c.   Rw,Rskin,Kskin
877.0 818.0 638 197                 ; 2d.   ztop,zbotm,row,col
77    -1                    ; 2a.   WELLID,NNODES
SKIN 0 0 0 0                        ; 2b.   LOSSTYPE,PUMPLOC,QLIMIT,PPFLAG,PUMPCAP
0.5 1.0 20.0                        ; 2c.   Rw,Rskin,Kskin
628.0 129.0 765 571                 ; 2d.   ztop,zbotm,row,col
78    -1                    ; 2a.   WELLID,NNODES
SKIN 0 0 0 0                        ; 2b.   LOSSTYPE,PUMPLOC,QLIMIT,PPFLAG,PUMPCAP
0.5 1.0 20.0                        ; 2c.   Rw,Rskin,Kskin
778.5 745.0 836 512                 ; 2d.   ztop,zbotm,row,col
79    -1                    ; 2a.   WELLID,NNODES
SKIN 0 0 0 0                        ; 2b.   LOSSTYPE,PUMPLOC,QLIMIT,PPFLAG,PUMPCAP
0.5 1.0 20.0                        ; 2c.   Rw,Rskin,Kskin
776.0 735.0 836 512                 ; 2d.   ztop,zbotm,row,col
80    -1                    ; 2a.   WELLID,NNODES
SKIN 0 0 0 0                        ; 2b.   LOSSTYPE,PUMPLOC,QLIMIT,PPFLAG,PUMPCAP
0.5 1.0 20.0                        ; 2c.   Rw,Rskin,Kskin
709.0 692.0 827 520                 ; 2d.   ztop,zbotm,row,col
81    -1                    ; 2a.   WELLID,NNODES
SKIN 0 0 0 0                        ; 2b.   LOSSTYPE,PUMPLOC,QLIMIT,PPFLAG,PUMPCAP
0.5 1.0 20.0                        ; 2c.   Rw,Rskin,Kskin
713.0 696.0 827 520                 ; 2d.   ztop,zbotm,row,col
83    -1                    ; 2a.   WELLID,NNODES
SKIN 0 0 0 0                        ; 2b.   LOSSTYPE,PUMPLOC,QLIMIT,PPFLAG,PUMPCAP
0.5 1.0 20.0                        ; 2c.   Rw,Rskin,Kskin
887.0 884.0 827 520                 ; 2d.   ztop,zbotm,row,col
84    -1                    ; 2a.   WELLID,NNODES
SKIN 0 0 0 0                        ; 2b.   LOSSTYPE,PUMPLOC,QLIMIT,PPFLAG,PUMPCAP
0.5 1.0 20.0                        ; 2c.   Rw,Rskin,Kskin
890.0 887.0 827 520                 ; 2d.   ztop,zbotm,row,col
85    -1                    ; 2a.   WELLID,NNODES
SKIN 0 0 0 0                        ; 2b.   LOSSTYPE,PUMPLOC,QLIMIT,PPFLAG,PUMPCAP
0.5 1.0 20.0                        ; 2c.   Rw,Rskin,Kskin
890.0 887.0 827 520                 ; 2d.   ztop,zbotm,row,col
86    -1                    ; 2a.   WELLID,NNODES
SKIN 0 0 0 0                        ; 2b.   LOSSTYPE,PUMPLOC,QLIMIT,PPFLAG,PUMPCAP
0.5 1.0 20.0                        ; 2c.   Rw,Rskin,Kskin
890.0 887.0 827 520                 ; 2d.   ztop,zbotm,row,col
87    -1                    ; 2a.   WELLID,NNODES
SKIN 0 0 0 0                        ; 2b.   LOSSTYPE,PUMPLOC,QLIMIT,PPFLAG,PUMPCAP
0.5 1.0 20.0                        ; 2c.   Rw,Rskin,Kskin
889.0 886.0 827 520                 ; 2d.   ztop,zbotm,row,col
89    -1                    ; 2a.   WELLID,NNODES
SKIN 0 0 0 0                        ; 2b.   LOSSTYPE,PUMPLOC,QLIMIT,PPFLAG,PUMPCAP
0.5 1.0 20.0                        ; 2c.   Rw,Rskin,Kskin
873.0 870.0 828 521                 ; 2d.   ztop,zbotm,row,col
90    -1                    ; 2a.   WELLID,NNODES
SKIN 0 0 0 0                        ; 2b.   LOSSTYPE,PUMPLOC,QLIMIT,PPFLAG,PUMPCAP
0.5 1.0 20.0                        ; 2c.   Rw,Rskin,Kskin
896.0 893.0 828 519                 ; 2d.   ztop,zbotm,row,col
91    -1                    ; 2a.   WELLID,NNODES
SKIN 0 0 0 0                        ; 2b.   LOSSTYPE,PUMPLOC,QLIMIT,PPFLAG,PUMPCAP
0.5 1.0 20.0                        ; 2c.   Rw,Rskin,Kskin
879.0 876.0 827 521                 ; 2d.   ztop,zbotm,row,col
143   -1                    ; 2a.   WELLID,NNODES
SKIN 0 0 0 0                        ; 2b.   LOSSTYPE,PUMPLOC,QLIMIT,PPFLAG,PUMPCAP
0.5 1.0 20.0                        ; 2c.   Rw,Rskin,Kskin
563.0 456.0 354 649                 ; 2d.   ztop,zbotm,row,col
144   -1                    ; 2a.   WELLID,NNODES
SKIN 0 0 0 0                        ; 2b.   LOSSTYPE,PUMPLOC,QLIMIT,PPFLAG,PUMPCAP
0.5 1.0 20.0                        ; 2c.   Rw,Rskin,Kskin
631.989868164 597.0 354 650                 ; 2d.   ztop,zbotm,row,col
145   -1                    ; 2a.   WELLID,NNODES
SKIN 0 0 0 0                        ; 2b.   LOSSTYPE,PUMPLOC,QLIMIT,PPFLAG,PUMPCAP
0.5 1.0 20.0                        ; 2c.   Rw,Rskin,Kskin
1434.0 1430.0 241 260                 ; 2d.   ztop,zbotm,row,col
152   -1                    ; 2a.   WELLID,NNODES
SKIN 0 0 0 0                        ; 2b.   LOSSTYPE,PUMPLOC,QLIMIT,PPFLAG,PUMPCAP
0.5 1.0 20.0                        ; 2c.   Rw,Rskin,Kskin
917.201477051 819.0 873 487                 ; 2d.   ztop,zbotm,row,col
153   -1                    ; 2a.   WELLID,NNODES
SKIN 0 0 0 0                        ; 2b.   LOSSTYPE,PUMPLOC,QLIMIT,PPFLAG,PUMPCAP
0.5 1.0 20.0                        ; 2c.   Rw,Rskin,Kskin
908.0 857.0 872 487                 ; 2d.   ztop,zbotm,row,col
154   -1                    ; 2a.   WELLID,NNODES
SKIN 0 0 0 0                        ; 2b.   LOSSTYPE,PUMPLOC,QLIMIT,PPFLAG,PUMPCAP
0.5 1.0 20.0                        ; 2c.   Rw,Rskin,Kskin
917.201477051 789.0 873 487                 ; 2d.   ztop,zbotm,row,col
170   -1                    ; 2a.   WELLID,NNODES
SKIN 0 0 0 0                        ; 2b.   LOSSTYPE,PUMPLOC,QLIMIT,PPFLAG,PUMPCAP
0.5 1.0 20.0                        ; 2c.   Rw,Rskin,Kskin
622.292419434 534.0 879 158                 ; 2d.   ztop,zbotm,row,col
174   -1                    ; 2a.   WELLID,NNODES
SKIN 0 0 0 0                        ; 2b.   LOSSTYPE,PUMPLOC,QLIMIT,PPFLAG,PUMPCAP
0.5 1.0 20.0                        ; 2c.   Rw,Rskin,Kskin
675.964172363 674.974182129 883 199                 ; 2d.   ztop,zbotm,row,col
178   -1                    ; 2a.   WELLID,NNODES
SKIN 0 0 0 0                        ; 2b.   LOSSTYPE,PUMPLOC,QLIMIT,PPFLAG,PUMPCAP
0.5 1.0 20.0                        ; 2c.   Rw,Rskin,Kskin
447.0 -320.564575195 499 519                 ; 2d.   ztop,zbotm,row,col
179   -1                    ; 2a.   WELLID,NNODES
SKIN 0 0 0 0                        ; 2b.   LOSSTYPE,PUMPLOC,QLIMIT,PPFLAG,PUMPCAP
0.5 1.0 20.0                        ; 2c.   Rw,Rskin,Kskin
447.0 -318.13659668 500 519                 ; 2d.   ztop,zbotm,row,col
180   -1                    ; 2a.   WELLID,NNODES
SKIN 0 0 0 0                        ; 2b.   LOSSTYPE,PUMPLOC,QLIMIT,PPFLAG,PUMPCAP
0.5 1.0 20.0                        ; 2c.   Rw,Rskin,Kskin
692.0 284.0 590 402                 ; 2d.   ztop,zbotm,row,col
181   -1                    ; 2a.   WELLID,NNODES
SKIN 0 0 0 0                        ; 2b.   LOSSTYPE,PUMPLOC,QLIMIT,PPFLAG,PUMPCAP
0.5 1.0 20.0                        ; 2c.   Rw,Rskin,Kskin
680.0 269.0 594 402                 ; 2d.   ztop,zbotm,row,col
182   -1                    ; 2a.   WELLID,NNODES
SKIN 0 0 0 0                        ; 2b.   LOSSTYPE,PUMPLOC,QLIMIT,PPFLAG,PUMPCAP
0.5 1.0 20.0                        ; 2c.   Rw,Rskin,Kskin
692.0 223.187789917 590 402                 ; 2d.   ztop,zbotm,row,col
184   -1                    ; 2a.   WELLID,NNODES
SKIN 0 0 0 0                        ; 2b.   LOSSTYPE,PUMPLOC,QLIMIT,PPFLAG,PUMPCAP
0.5 1.0 20.0                        ; 2c.   Rw,Rskin,Kskin
1016.0 1006.0 574 62                 ; 2d.   ztop,zbotm,row,col
185   -1                    ; 2a.   WELLID,NNODES
SKIN 0 0 0 0                        ; 2b.   LOSSTYPE,PUMPLOC,QLIMIT,PPFLAG,PUMPCAP
0.5 1.0 20.0                        ; 2c.   Rw,Rskin,Kskin
429.0 121.0 628 450                 ; 2d.   ztop,zbotm,row,col
186   -1                    ; 2a.   WELLID,NNODES
SKIN 0 0 0 0                        ; 2b.   LOSSTYPE,PUMPLOC,QLIMIT,PPFLAG,PUMPCAP
0.5 1.0 20.0                        ; 2c.   Rw,Rskin,Kskin
1016.7 1006.7 577 54                 ; 2d.   ztop,zbotm,row,col
187   -1                    ; 2a.   WELLID,NNODES
SKIN 0 0 0 0                        ; 2b.   LOSSTYPE,PUMPLOC,QLIMIT,PPFLAG,PUMPCAP
0.5 1.0 20.0                        ; 2c.   Rw,Rskin,Kskin
1016.2 1006.2 577 54                 ; 2d.   ztop,zbotm,row,col
188   -1                    ; 2a.   WELLID,NNODES
SKIN 0 0 0 0                        ; 2b.   LOSSTYPE,PUMPLOC,QLIMIT,PPFLAG,PUMPCAP
0.5 1.0 20.0                        ; 2c.   Rw,Rskin,Kskin
533.785461426 267.0 489 497                 ; 2d.   ztop,zbotm,row,col
189   -1                    ; 2a.   WELLID,NNODES
SKIN 0 0 0 0                        ; 2b.   LOSSTYPE,PUMPLOC,QLIMIT,PPFLAG,PUMPCAP
0.5 1.0 20.0                        ; 2c.   Rw,Rskin,Kskin
533.785461426 -104.0 489 497                 ; 2d.   ztop,zbotm,row,col
190   -1                    ; 2a.   WELLID,NNODES
SKIN 0 0 0 0                        ; 2b.   LOSSTYPE,PUMPLOC,QLIMIT,PPFLAG,PUMPCAP
0.5 1.0 20.0                        ; 2c.   Rw,Rskin,Kskin
723.0 499.0 676 384                 ; 2d.   ztop,zbotm,row,col
191   -1                    ; 2a.   WELLID,NNODES
SKIN 0 0 0 0                        ; 2b.   LOSSTYPE,PUMPLOC,QLIMIT,PPFLAG,PUMPCAP
0.5 1.0 20.0                        ; 2c.   Rw,Rskin,Kskin
739.0 471.0 676 384                 ; 2d.   ztop,zbotm,row,col
192   -1                    ; 2a.   WELLID,NNODES
SKIN 0 0 0 0                        ; 2b.   LOSSTYPE,PUMPLOC,QLIMIT,PPFLAG,PUMPCAP
0.5 1.0 20.0                        ; 2c.   Rw,Rskin,Kskin
735.783569336 663.0 776 544                 ; 2d.   ztop,zbotm,row,col
193   -1                    ; 2a.   WELLID,NNODES
SKIN 0 0 0 0                        ; 2b.   LOSSTYPE,PUMPLOC,QLIMIT,PPFLAG,PUMPCAP
0.5 1.0 20.0                        ; 2c.   Rw,Rskin,Kskin
503.026000977 0.0 767 614                 ; 2d.   ztop,zbotm,row,col
194   -1                    ; 2a.   WELLID,NNODES
SKIN 0 0 0 0                        ; 2b.   LOSSTYPE,PUMPLOC,QLIMIT,PPFLAG,PUMPCAP
0.5 1.0 20.0                        ; 2c.   Rw,Rskin,Kskin
662.0 142.0 777 420                 ; 2d.   ztop,zbotm,row,col
195   -1                    ; 2a.   WELLID,NNODES
SKIN 0 0 0 0                        ; 2b.   LOSSTYPE,PUMPLOC,QLIMIT,PPFLAG,PUMPCAP
0.5 1.0 20.0                        ; 2c.   Rw,Rskin,Kskin
1140.0 1120.0 506 137                 ; 2d.   ztop,zbotm,row,col
196   -1                    ; 2a.   WELLID,NNODES
SKIN 0 0 0 0                        ; 2b.   LOSSTYPE,PUMPLOC,QLIMIT,PPFLAG,PUMPCAP
0.5 1.0 20.0                        ; 2c.   Rw,Rskin,Kskin
533.0 461.0 836 592                 ; 2d.   ztop,zbotm,row,col
197   -1                    ; 2a.   WELLID,NNODES
SKIN 0 0 0 0                        ; 2b.   LOSSTYPE,PUMPLOC,QLIMIT,PPFLAG,PUMPCAP
0.5 1.0 20.0                        ; 2c.   Rw,Rskin,Kskin
796.0 774.0 888 543                 ; 2d.   ztop,zbotm,row,col
216   -1                    ; 2a.   WELLID,NNODES
SKIN 0 0 0 0                        ; 2b.   LOSSTYPE,PUMPLOC,QLIMIT,PPFLAG,PUMPCAP
0.5 1.0 20.0                        ; 2c.   Rw,Rskin,Kskin
240.0 230.0 482 604                 ; 2d.   ztop,zbotm,row,col
260   -1                    ; 2a.   WELLID,NNODES
SKIN 0 0 0 0                        ; 2b.   LOSSTYPE,PUMPLOC,QLIMIT,PPFLAG,PUMPCAP
0.5 1.0 20.0                        ; 2c.   Rw,Rskin,Kskin
834.0 624.0 905 313                 ; 2d.   ztop,zbotm,row,col
261   -1                    ; 2a.   WELLID,NNODES
SKIN 0 0 0 0                        ; 2b.   LOSSTYPE,PUMPLOC,QLIMIT,PPFLAG,PUMPCAP
0.5 1.0 20.0                        ; 2c.   Rw,Rskin,Kskin
707.858398438 170.0 581 419                 ; 2d.   ztop,zbotm,row,col
262   -1                    ; 2a.   WELLID,NNODES
SKIN 0 0 0 0                        ; 2b.   LOSSTYPE,PUMPLOC,QLIMIT,PPFLAG,PUMPCAP
0.5 1.0 20.0                        ; 2c.   Rw,Rskin,Kskin
707.858398438 170.0 581 419                 ; 2d.   ztop,zbotm,row,col
263   -1                    ; 2a.   WELLID,NNODES
SKIN 0 0 0 0                        ; 2b.   LOSSTYPE,PUMPLOC,QLIMIT,PPFLAG,PUMPCAP
0.5 1.0 20.0                        ; 2c.   Rw,Rskin,Kskin
703.877807617 571.0 583 418                 ; 2d.   ztop,zbotm,row,col
264   -1                    ; 2a.   WELLID,NNODES
SKIN 0 0 0 0                        ; 2b.   LOSSTYPE,PUMPLOC,QLIMIT,PPFLAG,PUMPCAP
0.5 1.0 20.0                        ; 2c.   Rw,Rskin,Kskin
705.840270996 373.0 584 418                 ; 2d.   ztop,zbotm,row,col
265   -1                    ; 2a.   WELLID,NNODES
SKIN 0 0 0 0                        ; 2b.   LOSSTYPE,PUMPLOC,QLIMIT,PPFLAG,PUMPCAP
0.5 1.0 20.0                        ; 2c.   Rw,Rskin,Kskin
1249.30004883 1191.35998535 288 67                 ; 2d.   ztop,zbotm,row,col
266   -1                    ; 2a.   WELLID,NNODES
SKIN 0 0 0 0                        ; 2b.   LOSSTYPE,PUMPLOC,QLIMIT,PPFLAG,PUMPCAP
0.5 1.0 20.0                        ; 2c.   Rw,Rskin,Kskin
1249.30004883 1191.35998535 288 67                 ; 2d.   ztop,zbotm,row,col
267   -1                    ; 2a.   WELLID,NNODES
SKIN 0 0 0 0                        ; 2b.   LOSSTYPE,PUMPLOC,QLIMIT,PPFLAG,PUMPCAP
0.5 1.0 20.0                        ; 2c.   Rw,Rskin,Kskin
787.0 503.0 763 251                 ; 2d.   ztop,zbotm,row,col
268   -1                    ; 2a.   WELLID,NNODES
SKIN 0 0 0 0                        ; 2b.   LOSSTYPE,PUMPLOC,QLIMIT,PPFLAG,PUMPCAP
0.5 1.0 20.0                        ; 2c.   Rw,Rskin,Kskin
1127.0 1109.0 409 78                 ; 2d.   ztop,zbotm,row,col
269   -1                    ; 2a.   WELLID,NNODES
SKIN 0 0 0 0                        ; 2b.   LOSSTYPE,PUMPLOC,QLIMIT,PPFLAG,PUMPCAP
0.5 1.0 20.0                        ; 2c.   Rw,Rskin,Kskin
765.0 448.0 639 382                 ; 2d.   ztop,zbotm,row,col
271   -1                    ; 2a.   WELLID,NNODES
SKIN 0 0 0 0                        ; 2b.   LOSSTYPE,PUMPLOC,QLIMIT,PPFLAG,PUMPCAP
0.5 1.0 20.0                        ; 2c.   Rw,Rskin,Kskin
709.0 452.0 612 408                 ; 2d.   ztop,zbotm,row,col
273   -1                    ; 2a.   WELLID,NNODES
SKIN 0 0 0 0                        ; 2b.   LOSSTYPE,PUMPLOC,QLIMIT,PPFLAG,PUMPCAP
0.5 1.0 20.0                        ; 2c.   Rw,Rskin,Kskin
698.0 671.0 666 572                 ; 2d.   ztop,zbotm,row,col
276   -1                    ; 2a.   WELLID,NNODES
SKIN 0 0 0 0                        ; 2b.   LOSSTYPE,PUMPLOC,QLIMIT,PPFLAG,PUMPCAP
0.5 1.0 20.0                        ; 2c.   Rw,Rskin,Kskin
690.0 669.0 606 405                 ; 2d.   ztop,zbotm,row,col
277   -1                    ; 2a.   WELLID,NNODES
SKIN 0 0 0 0                        ; 2b.   LOSSTYPE,PUMPLOC,QLIMIT,PPFLAG,PUMPCAP
0.5 1.0 20.0                        ; 2c.   Rw,Rskin,Kskin
730.450805664 327.0 606 413                 ; 2d.   ztop,zbotm,row,col
279   -1                    ; 2a.   WELLID,NNODES