# Basic package file for MODFLOW, generated by Flopy.
FREE
open/close  'FWPvert.ib1'      1  (FREE)  -1 #ibound Layer 1                
open/close  'FWPvert.ib1'      1  (FREE)  -1 #ibound Layer 1                
open/close  'FWPvert.ib1'      1  (FREE)  -1 #ibound Layer 1                 
open/close  'FWPvert.ib1'      1  (FREE)  -1 #ibound Layer 1                
open/close  'FWPvert.ib1'      1  (FREE)  -1 #ibound Layer 1                
           -999
external 77    1  (BINARY)  -1
external 77    1  (BINARY)  -1
external 77    1  (BINARY)  -1
external 77    1  (BINARY)  -1
external 77    1  (BINARY)  -1


