# RIV for MODFLOW, generated by Flopy.
      1136        53 NOPRINT AUX IFACE
      1136         0 # stress period 0
         open/close arrays\RIV_0000.dat
