# DRN for MODFLOW, generated by Flopy.
      1136        53 AUX IFACE
      1136         0 # stress period 0
         open/close arrays\DRN_0000.dat
