# NWT for MODFLOW-NWT, generated by Flopy.
 1.000e-04 5.000e+02       100 1.000e-05         2         1         1 SPECIFIED       0.8     1e-05         0       0.1         1        30      1.05       0.4
         2         1         3         7         1         0         1     0.001    0.0001       200
