# Basic package file for MODFLOW, generated by Flopy.
 FREE
OPEN/CLOSE       arrays\ibound_layer_0.ref               1   (186I10) -1 ibound_layer_0                
OPEN/CLOSE       arrays\ibound_layer_1.ref               1   (186I10) -1 ibound_layer_1                
OPEN/CLOSE       arrays\ibound_layer_2.ref               1   (186I10) -1 ibound_layer_2                
OPEN/CLOSE       arrays\ibound_layer_3.ref               1   (186I10) -1 ibound_layer_3                
          -9999
OPEN/CLOSE         arrays\strt_layer_0.ref               1 (186E15.6) -1 strt_layer_0                  
OPEN/CLOSE         arrays\strt_layer_1.ref               1 (186E15.6) -1 strt_layer_1                  
OPEN/CLOSE         arrays\strt_layer_2.ref               1 (186E15.6) -1 strt_layer_2                  
OPEN/CLOSE         arrays\strt_layer_3.ref               1 (186E15.6) -1 strt_layer_3                  
