# Discretization file for MODFLOW, generated by Flopy.
         4       108       186         1         4         2
  0  0  0  0
OPEN/CLOSE                 arrays\delr.ref               1 (186E15.6) -1 delr                          
OPEN/CLOSE                 arrays\delc.ref               1 (108E15.6) -1 delc                          
OPEN/CLOSE            arrays\model_top.ref               1     (FREE) -1 model_top                     
OPEN/CLOSE         arrays\botm_layer_0.ref               1 (186E15.6) -1 botm_layer_0                  
OPEN/CLOSE         arrays\botm_layer_1.ref               1 (186E15.6) -1 botm_layer_1                  
OPEN/CLOSE         arrays\botm_layer_2.ref               1 (186E15.6) -1 botm_layer_2                  
OPEN/CLOSE         arrays\botm_layer_3.ref               1 (186E15.6) -1 botm_layer_3                  
 100000.000000             1  1.000000  SS 
