# MODFLOW-NWT RCH Package
# File generated on 06/09/2015 14:47:30 by NHDwatbod2uzf.py script
         3        50
         1        -1 # Stress period 1
OPEN/CLOSE 'FWP_swb_rch_mult.dat'   1 (FREE)  -1