# MODFLOW-NWT UZF Package
# Template file generated on 06/17/2015 14:09:39
# NUZTOP IUZFOPT IRUNFLG IETFLG IUZFCB1 IUZFCB2 NTRAIL2 NSETS2 NUZGAG SURFDEP
3 1 1 0 50 0 3 20 0 5
OPEN/CLOSE 'FWP_IUZFBND.dat'  1  (FREE)  -1
OPEN/CLOSE 'FWP_IRUNBND.datfix'  1  (FREE)  -1
OPEN/CLOSE 'VKS_Layer_1.ref'  .999939000 (FREE)  -1
CONSTANT      3.5
CONSTANT      0.3
1
OPEN/CLOSE 'FWP_swb_FINF_mult.dat' 1  (FREE)  -1
