# MODFLOW-NWT GHB Package 
     34466        50 AUX IFACE
     34466         0     ITMP NP Stress Period 1
         1         1       147   1628.93     20000         6                
         1         1       148    1618.6     20000         6                
         1         1       149   1618.61     20000         6                
         1         2       148   1618.62     20000         6                
         1         2       149   1618.24     20000         6                
         1         3       149   1617.74     20000         6                
         1         3       150   1618.05     20000         6                
         1         4       150   1618.14     20000         6                
         1         5       147   1618.27     20000         6                
         1         5       148   1618.02     20000         6                
         1         5       149   1618.37     20000         6                
         1         6       146   1618.29     20000         6                
         1         6       147   1618.56     20000         6                
         1         7       146   1617.93     20000         6                
         1         8       145   1615.95     20000         6                
         1         8       146   1615.62     20000         6                
         1         9       144   1615.99     20000         6                
         1         9       145   1615.85     20000         6                
         1        10       143    1615.2     20000         6                
         1        10       144   1615.99     20000         6                
         1        11       142    1615.4     20000         6                
         1        12       140   1615.83     20000         6                
         1        12       143   1615.66     20000         6                
         1        13       140   1615.88     20000         6                
         1        13       141    1615.9     20000         6                
         1        13       143   1615.89     20000         6                
         1        14       141   1615.91     20000         6                
         1        14       143   1615.94     20000         6                
         1        15       142   1616.01     20000         6                
         1        15       143   1616.03     20000         6                
         1        16       123   1592.51     20000         6                
         1        16       124   1592.58     20000         6                
         1        16       125   1592.96     20000         6                
         1        16       126   1593.13     20000         6                
         1        16       143   1616.02     20000         6                
         1        17       122      1592     20000         6                
         1        17       127   1593.25     20000         6                
         1        17       128   1595.56     20000         6                
         1        17       129   1596.85     20000         6                
         1        17       130    1597.6     20000         6                
         1        17       140   1615.84     20000         6                
         1        17       141   1616.03     20000         6                
         1        17       142   1615.97     20000         6                
         1        17       143    1615.8     20000         6                
         1        18       121   1592.83     20000         6                
         1        18       131   1601.91     20000         6                
         1        18       132   1602.85     20000         6                
         1        18       135   1607.93     20000         6                
         1        18       140   1614.98     20000         6                
         1        19       120   1592.94     20000         6                
         1        19       121    1592.3     20000         6                
         1        19       133      1605     20000         6                
         1        19       134   1606.37     20000         6                
         1        19       136   1609.54     20000         6                
         1        19       137   1615.74     20000         6                
         1        19       138   1615.32     20000         6                
         1        19       139   1615.94     20000         6                
         1        20       117   1593.11     20000         6                
         1        20       118   1593.11     20000         6                
         1        20       119   1593.01     20000         6                
         1        21       116   1592.74     20000         6                
         1        21       117   1593.11     20000         6                
         1        22       115   1593.01     20000         6                
         1        22       116   1593.01     20000         6                
         1        23       113   1593.01     20000         6                
         1        23       114   1593.02     20000         6                
         1        23       115   1593.01     20000         6                
         1        24       112   1593.01     20000         6                
         1        26       110   1591.99     20000         6                
         1        27       105      1592     20000         6                
         1        27       106   1591.47     20000         6                
         1        27       107   1591.93     20000         6                
         1        27       108   1591.92     20000         6                
         1        27       109   1591.93     20000         6                
         1        28        97   1591.87     20000         6                
         1        28        98   1592.04     20000         6                
         1        28        99   1591.93     20000         6                
         1        28       100   1591.96     20000         6                
         1        28       101   1591.97     20000         6                
         1        28       102   1591.94     20000         6                
         1        28       103   1591.99     20000         6                
         1        28       104   1591.99     20000         6                
         1        28       105   1592.03     20000         6                
         1        29        91   1592.02     20000         6                
         1        29        92   1592.04     20000         6                
         1        29        96   1591.94     20000         6                
         1        29       100   1592.04     20000         6                
         1        29       101   1592.04     20000         6                
         1        30        90   1596.31     20000         6                
         1        30        91   1592.04     20000         6                
         1        30        92   1592.04     20000         6                
         1        30        93   1592.04     20000         6                
         1        30        94   1592.04     20000         6                
         1        30        95   1591.87     20000         6                
         1        31        90    1596.7     20000         6                
         1        31        91   1592.04     20000         6                
         1        31        92   1592.03     20000         6                
         1        31        93   1591.98     20000         6                
         1        31        94   1592.02     20000         6                
         1        32        91   1592.05     20000         6                
         1        32        92   1592.04     20000         6                
         1        33        88   1597.08     20000         6                
         1        33        89   1597.01     20000         6                
         1        33        90   1597.08     20000         6                
         1        33        91   1592.33     20000         6                
         1        33        92   1592.07     20000         6                
         1        33        93   1591.98     20000         6                
         1        34        84   1589.43     20000         6                
         1        34        85   1591.47     20000         6                
         1        34        88      1597     20000         6                
         1        34        89   1597.08     20000         6                
         1        34        90   1597.08     20000         6                
         1        34        91    1592.7     20000         6                
         1        34        92   1592.07     20000         6                
         1        34        93   1592.07     20000         6                
         1        35        84   1597.02     20000         6                
         1        35        87    1596.9     20000         6                
         1        35        88   1597.08     20000         6                
         1        35        89   1597.08     20000         6                
         1        35        90   1597.08     20000         6                
         1        35        91   1593.07     20000         6                
         1        35        92   1592.07     20000         6                
         1        35        93   1592.07     20000         6                
         1        36        83   1588.29     20000         6                
         1        36        84   1597.08     20000         6                
         1        36        85   1597.08     20000         6                
         1        36        86   1597.04     20000         6                
         1        36        87   1597.08     20000         6                
         1        36        88   1597.08     20000         6                
         1        36        89   1597.08     20000         6                
         1        36        90   1597.08     20000         6                
         1        36        91   1592.81     20000         6                
         1        36        92   1592.04     20000         6                
         1        37        83    1596.9     20000         6                
         1        37        84   1597.02     20000         6                
         1        37        85   1597.03     20000         6                
         1        37        86   1597.05     20000         6                
         1        37        87   1597.08     20000         6                
         1        37        88   1597.08     20000         6                
         1        37        89   1597.08     20000         6                
         1        37        90   1597.05     20000         6                
         1        38        82   1588.35     20000         6                
         1        38        83   1597.08     20000         6                
         1        38        84   1597.08     20000         6                
         1        38        85   1597.08     20000         6                
         1        38        86   1597.08     20000         6                
         1        38        87   1597.08     20000         6                
         1        38        88   1597.08     20000         6                
         1        38        89   1597.08     20000         6                
         1        38        90   1597.04     20000         6                
         1        39        82   1596.92     20000         6                
         1        39        83   1597.08     20000         6                
         1        39        84   1597.08     20000         6                
         1        39        86   1597.08     20000         6                
         1        39        87   1597.08     20000         6                
         1        39        88   1597.08     20000         6                
         1        39        89   1597.03     20000         6                
         1        39        90      1597     20000         6                
         1        40        83   1596.76     20000         6                
         1        40        84   1597.06     20000         6                
         1        40        85   1597.08     20000         6                
         1        40        86   1597.08     20000         6                
         1        40        87   1597.08     20000         6                
         1        40        88   1597.08     20000         6                
         1        40        89   1597.03     20000         6                
         1        40        90   1597.02     20000         6                
         1        41        85   1596.99     20000         6                
         1        41        86   1597.08     20000         6                
         1        41        87   1597.08     20000         6                
         1        41        88   1597.08     20000         6                
         1        41        89   1597.06     20000         6                
         1        41        90   1597.06     20000         6                
         1        42        83   1597.03     20000         6                
         1        42        84      1597     20000         6                
         1        42        85    1596.9     20000         6                
         1        42        86   1597.08     20000         6                
         1        42        87   1597.08     20000         6                
         1        42        88   1596.98     20000         6                
         1        42        89   1596.97     20000         6                
         1        42        90   1596.96     20000         6                
         1        43        82   1596.85     20000         6                
         1        43        83   1597.08     20000         6                
         1        43        84   1597.08     20000         6                
         1        43        85   1597.08     20000         6                
         1        43        86   1597.08     20000         6                
         1        43        87   1597.08     20000         6                
         1        43        88   1596.94     20000         6                
         1        43        90   1596.97     20000         6                
         1        44        81   1596.99     20000         6                
         1        44        82   1597.08     20000         6                
         1        44        83   1597.08     20000         6                
         1        44        84   1597.08     20000         6                
         1        44        85   1597.08     20000         6                
         1        44        86   1597.08     20000         6                
         1        44        87   1597.08     20000         6                
         1        44        88   1597.07     20000         6                
         1        44        89   1596.95     20000         6                
         1        44        90   1597.01     20000         6                
         1        44        91   1596.78     20000         6                
         1        45        81   1596.85     20000         6                
         1        45        82   1597.08     20000         6                
         1        45        83   1597.08     20000         6                
         1        45        84   1597.08     20000         6                
         1        45        85   1597.02     20000         6                
         1        45        87   1597.01     20000         6                
         1        45        89   1596.92     20000         6                
         1        45        91   1596.57     20000         6                
         1        45        92   1592.07     20000         6                
         1        45        94   1592.02     20000         6                
         1        46        81   1597.08     20000         6                
         1        46        82   1597.08     20000         6                
         1        46        83   1597.08     20000         6                
         1        46        84   1597.08     20000         6                
         1        46        86   1596.96     20000         6                
         1        46        87   1596.92     20000         6                
         1        46        88   1597.01     20000         6                
         1        46        89   1596.86     20000         6                
         1        46        90    1596.8     20000         6                
         1        46        93   1591.84     20000         6                
         1        46        94    1591.9     20000         6                
         1        47        81   1597.08     20000         6                
         1        47        82   1597.08     20000         6                
         1        47        83   1597.08     20000         6                
         1        47        84   1596.98     20000         6                
         1        47        85   1596.86     20000         6                
         1        49        79   1578.92     20000         6                
         1        50        78   1576.53     20000         6                
         1        51        78   1574.35     20000         6                
         1        52        78   1572.04     20000         6                
         1        53        78   1568.89     20000         6                
         1        54        79   1567.78     20000         6                
         1        55        80   1568.68     20000         6                
         1        55        81   1567.98     20000         6                
         1        56        82   1568.24     20000         6                
         1        57        82   1568.86     20000         6                
         1        58        83   1568.84     20000         6                
         1        59        84   1568.83     20000         6                
         1        60        84    1568.7     20000         6                
         1        61        83   1568.62     20000         6                
         1        62        83   1568.79     20000         6                
         1        63        82   1568.91     20000         6                
         1        63        83   1567.77     20000         6                
         1        64        81   1568.67     20000         6                
         1        64        82   1568.91     20000         6                
         1        64        83   1568.82     20000         6                
         1        66        80   1568.86     20000         6                
         1        66        81   1568.24     20000         6                
         1        67        79   1568.89     20000         6                
         1        68        79    1568.9     20000         6                
         1        69        79   1568.91     20000         6                
         1        70        78   1568.87     20000         6                
         1        71        79   1568.92     20000         6                
         1        72        79    1568.9     20000         6                
         1        73        79   1568.92     20000         6                
         1        74        78   1568.58     20000         6                
         1        75        79   1568.81     20000         6                
         1        76        79   1568.87     20000         6                
         1        77        79   1568.46     20000         6                
         1        78        80   1565.09     20000         6                
         1        78        81   1560.03     20000         6                
         1        78        82   1559.42     20000         6                
         1        79        83   1559.74     20000         6                
         1        80        83   1559.98     20000         6                
         1        80        85   1559.76     20000         6                
         1        81        84   1559.84     20000         6                
         1        81        85   1559.54     20000         6                
         1        81        86   1559.21     20000         6                
         1        81        87    1559.2     20000         6                
         1        82        87   1559.99     20000         6                
         1        82        88   1559.99     20000         6                
         1        82        89   1559.96     20000         6                
         1        83        89   1559.82     20000         6                
         1        83        90   1559.53     20000         6                
         1        83        91   1559.38     20000         6                
         1        84        90   1559.56     20000         6                
         1        85        91   1557.81     20000         6                
         1        86        90   1557.87     20000         6                
         1        86        91    1557.9     20000         6                
         1        87        90   1557.81     20000         6                
         1        87        91   1557.92     20000         6                
         1        88        90   1558.01     20000         6                
         1        88        91   1557.91     20000         6                
         1        89        91   1557.93     20000         6                
         1        89        92   1557.88     20000         6                
         1        90        91   1556.79     20000         6                
         1        90        92   1557.24     20000         6                
         1        91        91   1556.01     20000         6                
         1        91        92   1555.98     20000         6                
         1        92        91    1555.8     20000         6                
         1        92        92   1555.98     20000         6                
         1        93        92   1555.97     20000         6                
         1        93        93   1555.97     20000         6                
         1        93        94   1555.97     20000         6                
         1        93        95   1555.94     20000         6                
         1        93        96   1555.96     20000         6                
         1        93        98   1555.97     20000         6                
         1        94        92   1556.02     20000         6                
         1        94        93      1556     20000         6                
         1        94        94   1555.98     20000         6                
         1        94        95   1555.79     20000         6                
         1        94        96   1556.02     20000         6                
         1        94        97      1556     20000         6                
         1        94        98   1556.03     20000         6                
         1        94        99   1555.97     20000         6                
         1        95        94   1555.93     20000         6                
         1        95        97   1556.01     20000         6                
         1        95        98   1556.03     20000         6                
         1        95        99   1555.71     20000         6                
         1        95       100   1556.02     20000         6                
         1        96        97   1555.85     20000         6                
         1        96        98   1555.93     20000         6                
         1        96        99   1555.93     20000         6                
         1        96       100   1555.83     20000         6                
         1        96       101   1555.95     20000         6                
         1        96       102   1555.93     20000         6                
         1        96       103   1555.97     20000         6                
         1        97       104   1556.01     20000         6                
         1        97       105      1556     20000         6                
         1        98       105   1555.97     20000         6                
         1        98       106   1555.97     20000         6                
         1       100       108   1556.03     20000         6                
         1       100       109   1556.03     20000         6                
         1       101       108   1556.03     20000         6                
         1       101       109   1556.02     20000         6                
         1       102       108   1556.02     20000         6                
         1       102       109    1555.9     20000         6                
         1       102       110   1555.92     20000         6                
         1       103       109   1555.78     20000         6                
         1       103       110   1556.03     20000         6                
         1       104       110   1555.99     20000         6                
         1       104       111   1555.98     20000         6                
         1       105       109   1555.86     20000         6                
         1       105       110    1555.9     20000         6                
         1       105       111   1556.02     20000         6                
         1       105       112   1555.89     20000         6                
         1       106       110   1555.92     20000         6                
         1       106       111   1555.44     20000         6                
         1       107       111   1555.98     20000         6                
         1       108       111    1555.8     20000         6                
         1       109       110    1555.8     20000         6                
         1       109       111   1555.82     20000         6                
         1       110       110   1555.99     20000         6                
         1       110       111    1555.9     20000         6                
         1       111       110   1556.03     20000         6                
         1       112       110    1555.9     20000         6                
         1       112       113    1555.8     20000         6                
         1       113       111   1555.94     20000         6                
         1       113       112   1556.03     20000         6                
         1       113       113   1555.76     20000         6                
         1       113       114   1555.91     20000         6                
         1       113       115   1555.57     20000         6                
         1       114       113   1555.97     20000         6                
         1       115       117   1554.65     20000         6                
         1       116       117   1529.74     20000         6                
         1       116       118   1524.77     20000         6                
         1       117       118   1524.54     20000         6                
         1       118       118   1524.81     20000         6                
         1       119       117   1524.75     20000         6                
         1       120       113    1524.9     20000         6                
         1       120       114   1524.88     20000         6                
         1       120       115   1524.96     20000         6                
         1       121       112   1524.89     20000         6                
         1       121       113   1524.83     20000         6                
         1       122       112   1524.82     20000         6                
         1       123       111    1524.9     20000         6                
         1       124       111   1524.88     20000         6                
         1       125       111   1524.89     20000         6                
         1       126       111   1524.84     20000         6                
         1       127       111   1524.95     20000         6                
         1       128       110   1524.99     20000         6                
         1       128       111   1524.96     20000         6                
         1       129       110   1524.85     20000         6                
         1       130       110   1524.97     20000         6                
         1       131       109   1524.94     20000         6                
         1       132       108   1524.91     20000         6                
         1       133       108   1525.02     20000         6                
         1       134       108   1524.74     20000         6                
         1       135       108    1524.7     20000         6                
         1       136       107   1524.92     20000         6                
         1       137       107   1524.85     20000         6                
         1       138       106   1524.88     20000         6                
         1       139       105   1524.85     20000         6                
         1       139       106   1525.01     20000         6                
         1       140       104   1524.91     20000         6                
         1       140       105   1524.94     20000         6                
         1       141       104   1524.69     20000         6                
         1       142       103   1499.86     20000         6                
         1       143       103   1499.82     20000         6                