# Name file for MODFLOW-NWT, generated by Flopy.
#xul:0; yul:48158.5; rotation:0; proj4_str:+init=EPSG:4326; units:meters; lenuni:2 ;start_datetime:1-1-1970
LIST           2 Oconto.list
DIS           11 Oconto.dis 
BAS6          13 Oconto.bas 
UPW           31 Oconto.upw 
RCH           19 Oconto.rch 
DRN           21 Oconto.drn 
OC            14 Oconto.oc 
DATA(BINARY)  51 Oconto.hds REPLACE
DATA(BINARY)  52 Oconto.ddn REPLACE
DATA(BINARY)  53 Oconto.cbc REPLACE
NWT           32 Oconto.nwt 
