# RCH for MODFLOW, generated by Flopy.
         3        53
         1        -1 # Stress period 1
OPEN/CLOSE               arrays\rech_0.ref               1 (326E15.6) -1 rech_1                        
