# Basic package file for MODFLOW, generated by Flopy.
 FREE
OPEN/CLOSE       arrays\ibound_layer_1.ref               1   (326I10) -1 ibound layer 1                
OPEN/CLOSE       arrays\ibound_layer_2.ref               1   (326I10) -1 ibound layer 2                
OPEN/CLOSE       arrays\ibound_layer_3.ref               1   (326I10) -1 ibound layer 3                
OPEN/CLOSE       arrays\ibound_layer_4.ref               1   (326I10) -1 ibound layer 4                
          -9999
OPEN/CLOSE         arrays\strt_layer_1.ref               1 (326E15.6) -1 strt layer 1                  
OPEN/CLOSE         arrays\strt_layer_2.ref               1 (326E15.6) -1 strt layer 2                  
OPEN/CLOSE         arrays\strt_layer_3.ref               1 (326E15.6) -1 strt layer 3                  
OPEN/CLOSE         arrays\strt_layer_4.ref               1 (326E15.6) -1 strt layer 4                  
