# Discretization file for MODFLOW, generated by Flopy.
         4       158       326         1         4         2
  0  0  0  0
OPEN/CLOSE                 arrays\delr.ref               1 (326E15.6) -1 delr                          
OPEN/CLOSE                 arrays\delc.ref               1 (158E15.6) -1 delc                          
OPEN/CLOSE            arrays\model_top.ref               1 (326E15.6) -1 model_top                     
OPEN/CLOSE         arrays\botm_layer_1.ref               1 (326E15.6) -1 botm layer 1                  
OPEN/CLOSE         arrays\botm_layer_2.ref               1 (326E15.6) -1 botm layer 2                  
OPEN/CLOSE         arrays\botm_layer_3.ref               1 (326E15.6) -1 botm layer 3                  
OPEN/CLOSE         arrays\botm_layer_4.ref               1 (326E15.6) -1 botm layer 4                  
 100000.000000             1  1.000000  SS 
