# DRN for MODFLOW, generated by Flopy.
      5434        53 NOPRINT AUX IFACE
      5434         0 # stress period 0
         open/close arrays\DRN_0000.dat
