# MODFLOW-NWT MNW2 Package 
# File generated on 01/06/2016 14:06:35
3201 50 2                           ; 1.    MNWMAX,IWL2CB,MNWPRNT
9     -1                    ; 2a.   WELLID,NNODES
SKIN 0 0 0 0                        ; 2b.   LOSSTYPE,PUMPLOC,QLIMIT,PPFLAG,PUMPCAP
0.5 1.0 20.0                        ; 2c.   Rw,Rskin,Kskin
706.0 681.0 877 164                 ; 2d.   ztop,zbotm,row,col
15    -1                    ; 2a.   WELLID,NNODES
SKIN 0 0 0 0                        ; 2b.   LOSSTYPE,PUMPLOC,QLIMIT,PPFLAG,PUMPCAP
0.5 1.0 20.0                        ; 2c.   Rw,Rskin,Kskin
1484.0 1474.0 227 248                 ; 2d.   ztop,zbotm,row,col
16    -1                    ; 2a.   WELLID,NNODES
SKIN 0 0 0 0                        ; 2b.   LOSSTYPE,PUMPLOC,QLIMIT,PPFLAG,PUMPCAP
0.5 1.0 20.0                        ; 2c.   Rw,Rskin,Kskin
1430.0 1422.0 228 249                 ; 2d.   ztop,zbotm,row,col
17    -1                    ; 2a.   WELLID,NNODES
SKIN 0 0 0 0                        ; 2b.   LOSSTYPE,PUMPLOC,QLIMIT,PPFLAG,PUMPCAP
0.5 1.0 20.0                        ; 2c.   Rw,Rskin,Kskin
1442.0 1430.0 228 249                 ; 2d.   ztop,zbotm,row,col
18    -1                    ; 2a.   WELLID,NNODES
SKIN 0 0 0 0                        ; 2b.   LOSSTYPE,PUMPLOC,QLIMIT,PPFLAG,PUMPCAP
0.5 1.0 20.0                        ; 2c.   Rw,Rskin,Kskin
1481.0 1477.0 228 249                 ; 2d.   ztop,zbotm,row,col
19    -1                    ; 2a.   WELLID,NNODES
SKIN 0 0 0 0                        ; 2b.   LOSSTYPE,PUMPLOC,QLIMIT,PPFLAG,PUMPCAP
0.5 1.0 20.0                        ; 2c.   Rw,Rskin,Kskin
1416.0 1397.0 228 249                 ; 2d.   ztop,zbotm,row,col
20    -1                    ; 2a.   WELLID,NNODES
SKIN 0 0 0 0                        ; 2b.   LOSSTYPE,PUMPLOC,QLIMIT,PPFLAG,PUMPCAP
0.5 1.0 20.0                        ; 2c.   Rw,Rskin,Kskin
1438.0 1404.0 228 249                 ; 2d.   ztop,zbotm,row,col
21    -1                    ; 2a.   WELLID,NNODES
SKIN 0 0 0 0                        ; 2b.   LOSSTYPE,PUMPLOC,QLIMIT,PPFLAG,PUMPCAP
0.5 1.0 20.0                        ; 2c.   Rw,Rskin,Kskin
1550.0 1528.0 230 247                 ; 2d.   ztop,zbotm,row,col
22    -1                    ; 2a.   WELLID,NNODES
SKIN 0 0 0 0                        ; 2b.   LOSSTYPE,PUMPLOC,QLIMIT,PPFLAG,PUMPCAP
0.5 1.0 20.0                        ; 2c.   Rw,Rskin,Kskin
1538.0 1503.0 230 247                 ; 2d.   ztop,zbotm,row,col
23    -1                    ; 2a.   WELLID,NNODES
SKIN 0 0 0 0                        ; 2b.   LOSSTYPE,PUMPLOC,QLIMIT,PPFLAG,PUMPCAP
0.5 1.0 20.0                        ; 2c.   Rw,Rskin,Kskin
1397.0 1384.0 228 249                 ; 2d.   ztop,zbotm,row,col
24    -1                    ; 2a.   WELLID,NNODES
SKIN 0 0 0 0                        ; 2b.   LOSSTYPE,PUMPLOC,QLIMIT,PPFLAG,PUMPCAP
0.5 1.0 20.0                        ; 2c.   Rw,Rskin,Kskin
1378.0 1364.0 227 248                 ; 2d.   ztop,zbotm,row,col
28    -1                    ; 2a.   WELLID,NNODES
SKIN 0 0 0 0                        ; 2b.   LOSSTYPE,PUMPLOC,QLIMIT,PPFLAG,PUMPCAP
0.5 1.0 20.0                        ; 2c.   Rw,Rskin,Kskin
1347.0 1341.0 291 243                 ; 2d.   ztop,zbotm,row,col
31    -1                    ; 2a.   WELLID,NNODES
SKIN 0 0 0 0                        ; 2b.   LOSSTYPE,PUMPLOC,QLIMIT,PPFLAG,PUMPCAP
0.5 1.0 20.0                        ; 2c.   Rw,Rskin,Kskin
725.0 673.0 523 398                 ; 2d.   ztop,zbotm,row,col
32    -1                    ; 2a.   WELLID,NNODES
SKIN 0 0 0 0                        ; 2b.   LOSSTYPE,PUMPLOC,QLIMIT,PPFLAG,PUMPCAP
0.5 1.0 20.0                        ; 2c.   Rw,Rskin,Kskin
733.0 693.0 523 398                 ; 2d.   ztop,zbotm,row,col
37    -1                    ; 2a.   WELLID,NNODES
SKIN 0 0 0 0                        ; 2b.   LOSSTYPE,PUMPLOC,QLIMIT,PPFLAG,PUMPCAP
0.5 1.0 20.0                        ; 2c.   Rw,Rskin,Kskin
1500.5 1490.0 256 197                 ; 2d.   ztop,zbotm,row,col
52    -1                    ; 2a.   WELLID,NNODES
SKIN 0 0 0 0                        ; 2b.   LOSSTYPE,PUMPLOC,QLIMIT,PPFLAG,PUMPCAP
0.5 1.0 20.0                        ; 2c.   Rw,Rskin,Kskin
1415.0 1410.0 287 239                 ; 2d.   ztop,zbotm,row,col
53    -1                    ; 2a.   WELLID,NNODES
SKIN 0 0 0 0                        ; 2b.   LOSSTYPE,PUMPLOC,QLIMIT,PPFLAG,PUMPCAP
0.5 1.0 20.0                        ; 2c.   Rw,Rskin,Kskin
1408.0 1403.0 287 239                 ; 2d.   ztop,zbotm,row,col
54    -1                    ; 2a.   WELLID,NNODES
SKIN 0 0 0 0                        ; 2b.   LOSSTYPE,PUMPLOC,QLIMIT,PPFLAG,PUMPCAP
0.5 1.0 20.0                        ; 2c.   Rw,Rskin,Kskin
1408.0 1402.0 287 239                 ; 2d.   ztop,zbotm,row,col
55    -1                    ; 2a.   WELLID,NNODES
SKIN 0 0 0 0                        ; 2b.   LOSSTYPE,PUMPLOC,QLIMIT,PPFLAG,PUMPCAP
0.5 1.0 20.0                        ; 2c.   Rw,Rskin,Kskin
1400.0 1395.0 287 239                 ; 2d.   ztop,zbotm,row,col
56    -1                    ; 2a.   WELLID,NNODES
SKIN 0 0 0 0                        ; 2b.   LOSSTYPE,PUMPLOC,QLIMIT,PPFLAG,PUMPCAP
0.5 1.0 20.0                        ; 2c.   Rw,Rskin,Kskin
1406.0 1386.0 287 239                 ; 2d.   ztop,zbotm,row,col
57    -1                    ; 2a.   WELLID,NNODES
SKIN 0 0 0 0                        ; 2b.   LOSSTYPE,PUMPLOC,QLIMIT,PPFLAG,PUMPCAP
0.5 1.0 20.0                        ; 2c.   Rw,Rskin,Kskin
1408.0 1388.0 287 239                 ; 2d.   ztop,zbotm,row,col
58    -1                    ; 2a.   WELLID,NNODES
SKIN 0 0 0 0                        ; 2b.   LOSSTYPE,PUMPLOC,QLIMIT,PPFLAG,PUMPCAP
0.5 1.0 20.0                        ; 2c.   Rw,Rskin,Kskin
1365.0 1345.0 287 239                 ; 2d.   ztop,zbotm,row,col
59    -1                    ; 2a.   WELLID,NNODES
SKIN 0 0 0 0                        ; 2b.   LOSSTYPE,PUMPLOC,QLIMIT,PPFLAG,PUMPCAP
0.5 1.0 20.0                        ; 2c.   Rw,Rskin,Kskin
1460.09997559 1324.99694824 287 239                 ; 2d.   ztop,zbotm,row,col
60    -1                    ; 2a.   WELLID,NNODES
SKIN 0 0 0 0                        ; 2b.   LOSSTYPE,PUMPLOC,QLIMIT,PPFLAG,PUMPCAP
0.5 1.0 20.0                        ; 2c.   Rw,Rskin,Kskin
1411.0 1401.0 287 239                 ; 2d.   ztop,zbotm,row,col
68    -1                    ; 2a.   WELLID,NNODES
SKIN 0 0 0 0                        ; 2b.   LOSSTYPE,PUMPLOC,QLIMIT,PPFLAG,PUMPCAP
0.5 1.0 20.0                        ; 2c.   Rw,Rskin,Kskin
1173.0 1143.0 310 76                 ; 2d.   ztop,zbotm,row,col
69    -1                    ; 2a.   WELLID,NNODES
SKIN 0 0 0 0                        ; 2b.   LOSSTYPE,PUMPLOC,QLIMIT,PPFLAG,PUMPCAP
0.5 1.0 20.0                        ; 2c.   Rw,Rskin,Kskin
869.0 809.0 639 198                 ; 2d.   ztop,zbotm,row,col
70    -1                    ; 2a.   WELLID,NNODES
SKIN 0 0 0 0                        ; 2b.   LOSSTYPE,PUMPLOC,QLIMIT,PPFLAG,PUMPCAP
0.5 1.0 20.0                        ; 2c.   Rw,Rskin,Kskin
853.0 793.0 640 197                 ; 2d.   ztop,zbotm,row,col
71    -1                    ; 2a.   WELLID,NNODES
SKIN 0 0 0 0                        ; 2b.   LOSSTYPE,PUMPLOC,QLIMIT,PPFLAG,PUMPCAP
0.5 1.0 20.0                        ; 2c.   Rw,Rskin,Kskin
811.0 774.0 638 200                 ; 2d.   ztop,zbotm,row,col
72    -1                    ; 2a.   WELLID,NNODES
SKIN 0 0 0 0                        ; 2b.   LOSSTYPE,PUMPLOC,QLIMIT,PPFLAG,PUMPCAP
0.5 1.0 20.0                        ; 2c.   Rw,Rskin,Kskin
868.0 818.0 639 196                 ; 2d.   ztop,zbotm,row,col
73    -1                    ; 2a.   WELLID,NNODES
SKIN 0 0 0 0                        ; 2b.   LOSSTYPE,PUMPLOC,QLIMIT,PPFLAG,PUMPCAP
0.5 1.0 20.0                        ; 2c.   Rw,Rskin,Kskin
884.0 829.0 638 198                 ; 2d.   ztop,zbotm,row,col
74    -1                    ; 2a.   WELLID,NNODES
SKIN 0 0 0 0                        ; 2b.   LOSSTYPE,PUMPLOC,QLIMIT,PPFLAG,PUMPCAP
0.5 1.0 20.0                        ; 2c.   Rw,Rskin,Kskin
866.0 804.0 639 197                 ; 2d.   ztop,zbotm,row,col
75    -1                    ; 2a.   WELLID,NNODES
SKIN 0 0 0 0                        ; 2b.   LOSSTYPE,PUMPLOC,QLIMIT,PPFLAG,PUMPCAP
0.5 1.0 20.0                        ; 2c.   Rw,Rskin,Kskin
877.0 818.0 638 197                 ; 2d.   ztop,zbotm,row,col
83    -1                    ; 2a.   WELLID,NNODES
SKIN 0 0 0 0                        ; 2b.   LOSSTYPE,PUMPLOC,QLIMIT,PPFLAG,PUMPCAP
0.5 1.0 20.0                        ; 2c.   Rw,Rskin,Kskin
887.0 884.0 827 520                 ; 2d.   ztop,zbotm,row,col
84    -1                    ; 2a.   WELLID,NNODES
SKIN 0 0 0 0                        ; 2b.   LOSSTYPE,PUMPLOC,QLIMIT,PPFLAG,PUMPCAP
0.5 1.0 20.0                        ; 2c.   Rw,Rskin,Kskin
890.0 887.0 827 520                 ; 2d.   ztop,zbotm,row,col
85    -1                    ; 2a.   WELLID,NNODES
SKIN 0 0 0 0                        ; 2b.   LOSSTYPE,PUMPLOC,QLIMIT,PPFLAG,PUMPCAP
0.5 1.0 20.0                        ; 2c.   Rw,Rskin,Kskin
890.0 887.0 827 520                 ; 2d.   ztop,zbotm,row,col
86    -1                    ; 2a.   WELLID,NNODES
SKIN 0 0 0 0                        ; 2b.   LOSSTYPE,PUMPLOC,QLIMIT,PPFLAG,PUMPCAP
0.5 1.0 20.0                        ; 2c.   Rw,Rskin,Kskin
890.0 887.0 827 520                 ; 2d.   ztop,zbotm,row,col
87    -1                    ; 2a.   WELLID,NNODES
SKIN 0 0 0 0                        ; 2b.   LOSSTYPE,PUMPLOC,QLIMIT,PPFLAG,PUMPCAP
0.5 1.0 20.0                        ; 2c.   Rw,Rskin,Kskin
889.0 886.0 827 520                 ; 2d.   ztop,zbotm,row,col
89    -1                    ; 2a.   WELLID,NNODES
SKIN 0 0 0 0                        ; 2b.   LOSSTYPE,PUMPLOC,QLIMIT,PPFLAG,PUMPCAP
0.5 1.0 20.0                        ; 2c.   Rw,Rskin,Kskin
873.0 870.0 828 521                 ; 2d.   ztop,zbotm,row,col
90    -1                    ; 2a.   WELLID,NNODES
SKIN 0 0 0 0                        ; 2b.   LOSSTYPE,PUMPLOC,QLIMIT,PPFLAG,PUMPCAP
0.5 1.0 20.0                        ; 2c.   Rw,Rskin,Kskin
896.0 893.0 828 519                 ; 2d.   ztop,zbotm,row,col
91    -1                    ; 2a.   WELLID,NNODES
SKIN 0 0 0 0                        ; 2b.   LOSSTYPE,PUMPLOC,QLIMIT,PPFLAG,PUMPCAP
0.5 1.0 20.0                        ; 2c.   Rw,Rskin,Kskin
879.0 876.0 827 521                 ; 2d.   ztop,zbotm,row,col
145   -1                    ; 2a.   WELLID,NNODES
SKIN 0 0 0 0                        ; 2b.   LOSSTYPE,PUMPLOC,QLIMIT,PPFLAG,PUMPCAP
0.5 1.0 20.0                        ; 2c.   Rw,Rskin,Kskin
1434.0 1430.0 241 260                 ; 2d.   ztop,zbotm,row,col
184   -1                    ; 2a.   WELLID,NNODES
SKIN 0 0 0 0                        ; 2b.   LOSSTYPE,PUMPLOC,QLIMIT,PPFLAG,PUMPCAP
0.5 1.0 20.0                        ; 2c.   Rw,Rskin,Kskin
1016.0 1006.0 574 62                 ; 2d.   ztop,zbotm,row,col
186   -1                    ; 2a.   WELLID,NNODES
SKIN 0 0 0 0                        ; 2b.   LOSSTYPE,PUMPLOC,QLIMIT,PPFLAG,PUMPCAP
0.5 1.0 20.0                        ; 2c.   Rw,Rskin,Kskin
1016.7 1006.7 577 54                 ; 2d.   ztop,zbotm,row,col
187   -1                    ; 2a.   WELLID,NNODES
SKIN 0 0 0 0                        ; 2b.   LOSSTYPE,PUMPLOC,QLIMIT,PPFLAG,PUMPCAP
0.5 1.0 20.0                        ; 2c.   Rw,Rskin,Kskin
1016.2 1006.2 577 54                 ; 2d.   ztop,zbotm,row,col
195   -1                    ; 2a.   WELLID,NNODES
SKIN 0 0 0 0                        ; 2b.   LOSSTYPE,PUMPLOC,QLIMIT,PPFLAG,PUMPCAP
0.5 1.0 20.0                        ; 2c.   Rw,Rskin,Kskin
1140.0 1120.0 506 137                 ; 2d.   ztop,zbotm,row,col
265   -1                    ; 2a.   WELLID,NNODES
SKIN 0 0 0 0                        ; 2b.   LOSSTYPE,PUMPLOC,QLIMIT,PPFLAG,PUMPCAP
0.5 1.0 20.0                        ; 2c.   Rw,Rskin,Kskin
1249.30004883 1191.35998535 288 67                 ; 2d.   ztop,zbotm,row,col
266   -1                    ; 2a.   WELLID,NNODES
SKIN 0 0 0 0                        ; 2b.   LOSSTYPE,PUMPLOC,QLIMIT,PPFLAG,PUMPCAP
0.5 1.0 20.0                        ; 2c.   Rw,Rskin,Kskin
1249.30004883 1191.35998535 288 67                 ; 2d.   ztop,zbotm,row,col
268   -1                    ; 2a.   WELLID,NNODES
SKIN 0 0 0 0                        ; 2b.   LOSSTYPE,PUMPLOC,QLIMIT,PPFLAG,PUMPCAP
0.5 1.0 20.0                        ; 2c.   Rw,Rskin,Kskin
1127.0 1109.0 409 78                 ; 2d.   ztop,zbotm,row,col
279   -1                    ; 2a.   WELLID,NNODES
SKIN 0 0 0 0                        ; 2b.   LOSSTYPE,PUMPLOC,QLIMIT,PPFLAG,PUMPCAP
0.5 1.0 20.0                        ; 2c.   Rw,Rskin,Kskin
1000.5 992.0 545 177                 ; 2d.   ztop,zbotm,row,col
283   -1                    ; 2a.   WELLID,NNODES
SKIN 0 0 0 0                        ; 2b.   LOSSTYPE,PUMPLOC,QLIMIT,PPFLAG,PUMPCAP
0.5 1.0 20.0                        ; 2c.   Rw,Rskin,Kskin
926.0 925.0 888 464                 ; 2d.   ztop,zbotm,row,col
305   -1                    ; 2a.   WELLID,NNODES
SKIN 0 0 0 0                        ; 2b.   LOSSTYPE,PUMPLOC,QLIMIT,PPFLAG,PUMPCAP
0.5 1.0 20.0                        ; 2c.   Rw,Rskin,Kskin
898.0 893.0 894 497                 ; 2d.   ztop,zbotm,row,col
325   -1                    ; 2a.   WELLID,NNODES
SKIN 0 0 0 0                        ; 2b.   LOSSTYPE,PUMPLOC,QLIMIT,PPFLAG,PUMPCAP
0.5 1.0 20.0                        ; 2c.   Rw,Rskin,Kskin
827.0 807.0 862 550                 ; 2d.   ztop,zbotm,row,col
351   -1                    ; 2a.   WELLID,NNODES
SKIN 0 0 0 0                        ; 2b.   LOSSTYPE,PUMPLOC,QLIMIT,PPFLAG,PUMPCAP
0.5 1.0 20.0                        ; 2c.   Rw,Rskin,Kskin
1142.0 1097.0 403 78                 ; 2d.   ztop,zbotm,row,col
352   -1                    ; 2a.   WELLID,NNODES
SKIN 0 0 0 0                        ; 2b.   LOSSTYPE,PUMPLOC,QLIMIT,PPFLAG,PUMPCAP
0.5 1.0 20.0                        ; 2c.   Rw,Rskin,Kskin
1141.0 1096.0 403 78                 ; 2d.   ztop,zbotm,row,col
356   -1                    ; 2a.   WELLID,NNODES
SKIN 0 0 0 0                        ; 2b.   LOSSTYPE,PUMPLOC,QLIMIT,PPFLAG,PUMPCAP
0.5 1.0 20.0                        ; 2c.   Rw,Rskin,Kskin
1105.0 1090.0 404 77                 ; 2d.   ztop,zbotm,row,col
357   -1                    ; 2a.   WELLID,NNODES
SKIN 0 0 0 0                        ; 2b.   LOSSTYPE,PUMPLOC,QLIMIT,PPFLAG,PUMPCAP
0.5 1.0 20.0                        ; 2c.   Rw,Rskin,Kskin
1110.0 1095.0 404 77                 ; 2d.   ztop,zbotm,row,col
373   -1                    ; 2a.   WELLID,NNODES
SKIN 0 0 0 0                        ; 2b.   LOSSTYPE,PUMPLOC,QLIMIT,PPFLAG,PUMPCAP
0.5 1.0 20.0                        ; 2c.   Rw,Rskin,Kskin
1047.0 1027.0 529 112                 ; 2d.   ztop,zbotm,row,col
374   -1                    ; 2a.   WELLID,NNODES
SKIN 0 0 0 0                        ; 2b.   LOSSTYPE,PUMPLOC,QLIMIT,PPFLAG,PUMPCAP
0.5 1.0 20.0                        ; 2c.   Rw,Rskin,Kskin
1030.0 1011.0 529 113                 ; 2d.   ztop,zbotm,row,col
375   -1                    ; 2a.   WELLID,NNODES
SKIN 0 0 0 0                        ; 2b.   LOSSTYPE,PUMPLOC,QLIMIT,PPFLAG,PUMPCAP
0.5 1.0 20.0                        ; 2c.   Rw,Rskin,Kskin
886.0 859.0 40 477                 ; 2d.   ztop,zbotm,row,col
376   -1                    ; 2a.   WELLID,NNODES
SKIN 0 0 0 0                        ; 2b.   LOSSTYPE,PUMPLOC,QLIMIT,PPFLAG,PUMPCAP
0.5 1.0 20.0                        ; 2c.   Rw,Rskin,Kskin
869.0 859.0 41 476                 ; 2d.   ztop,zbotm,row,col
377   -1                    ; 2a.   WELLID,NNODES
SKIN 0 0 0 0                        ; 2b.   LOSSTYPE,PUMPLOC,QLIMIT,PPFLAG,PUMPCAP
0.5 1.0 20.0                        ; 2c.   Rw,Rskin,Kskin
1009.0 990.0 538 108                 ; 2d.   ztop,zbotm,row,col
393   -1                    ; 2a.   WELLID,NNODES
SKIN 0 0 0 0                        ; 2b.   LOSSTYPE,PUMPLOC,QLIMIT,PPFLAG,PUMPCAP
0.5 1.0 20.0                        ; 2c.   Rw,Rskin,Kskin
1512.5 1496.5 118 119                 ; 2d.   ztop,zbotm,row,col
403   -1                    ; 2a.   WELLID,NNODES
SKIN 0 0 0 0                        ; 2b.   LOSSTYPE,PUMPLOC,QLIMIT,PPFLAG,PUMPCAP
0.5 1.0 20.0                        ; 2c.   Rw,Rskin,Kskin
1236.69995117 1179.36096191 345 73                 ; 2d.   ztop,zbotm,row,col
406   -1                    ; 2a.   WELLID,NNODES
SKIN 0 0 0 0                        ; 2b.   LOSSTYPE,PUMPLOC,QLIMIT,PPFLAG,PUMPCAP
0.5 1.0 20.0                        ; 2c.   Rw,Rskin,Kskin
1109.0 1044.0 394 81                 ; 2d.   ztop,zbotm,row,col
407   -1                    ; 2a.   WELLID,NNODES
SKIN 0 0 0 0                        ; 2b.   LOSSTYPE,PUMPLOC,QLIMIT,PPFLAG,PUMPCAP
0.5 1.0 20.0                        ; 2c.   Rw,Rskin,Kskin
1130.0 1100.0 393 81                 ; 2d.   ztop,zbotm,row,col
408   -1                    ; 2a.   WELLID,NNODES
SKIN 0 0 0 0                        ; 2b.   LOSSTYPE,PUMPLOC,QLIMIT,PPFLAG,PUMPCAP
0.5 1.0 20.0                        ; 2c.   Rw,Rskin,Kskin
1082.5 1067.0 394 81                 ; 2d.   ztop,zbotm,row,col
409   -1                    ; 2a.   WELLID,NNODES
SKIN 0 0 0 0                        ; 2b.   LOSSTYPE,PUMPLOC,QLIMIT,PPFLAG,PUMPCAP
0.5 1.0 20.0                        ; 2c.   Rw,Rskin,Kskin
1100.0 1060.0 393 82                 ; 2d.   ztop,zbotm,row,col
422   -1                    ; 2a.   WELLID,NNODES
SKIN 0 0 0 0                        ; 2b.   LOSSTYPE,PUMPLOC,QLIMIT,PPFLAG,PUMPCAP
0.5 1.0 20.0                        ; 2c.   Rw,Rskin,Kskin
1001.0 981.0 600 145                 ; 2d.   ztop,zbotm,row,col
424   -1                    ; 2a.   WELLID,NNODES
SKIN 0 0 0 0                        ; 2b.   LOSSTYPE,PUMPLOC,QLIMIT,PPFLAG,PUMPCAP
0.5 1.0 20.0                        ; 2c.   Rw,Rskin,Kskin
1228.0 1218.0 341 231                 ; 2d.   ztop,zbotm,row,col
436   -1                    ; 2a.   WELLID,NNODES
SKIN 0 0 0 0                        ; 2b.   LOSSTYPE,PUMPLOC,QLIMIT,PPFLAG,PUMPCAP
0.5 1.0 20.0                        ; 2c.   Rw,Rskin,Kskin
628.0 617.0 898 177                 ; 2d.   ztop,zbotm,row,col
470   -1                    ; 2a.   WELLID,NNODES
SKIN 0 0 0 0                        ; 2b.   LOSSTYPE,PUMPLOC,QLIMIT,PPFLAG,PUMPCAP
0.5 1.0 20.0                        ; 2c.   Rw,Rskin,Kskin
800.0 770.0 688 192                 ; 2d.   ztop,zbotm,row,col
472   -1                    ; 2a.   WELLID,NNODES
SKIN 0 0 0 0                        ; 2b.   LOSSTYPE,PUMPLOC,QLIMIT,PPFLAG,PUMPCAP
0.5 1.0 20.0                        ; 2c.   Rw,Rskin,Kskin
1080.09997559 1017.0 548 117                 ; 2d.   ztop,zbotm,row,col
473   -1                    ; 2a.   WELLID,NNODES
SKIN 0 0 0 0                        ; 2b.   LOSSTYPE,PUMPLOC,QLIMIT,PPFLAG,PUMPCAP
0.5 1.0 20.0                        ; 2c.   Rw,Rskin,Kskin
1028.0 1013.0 556 94                 ; 2d.   ztop,zbotm,row,col
474   -1                    ; 2a.   WELLID,NNODES
SKIN 0 0 0 0                        ; 2b.   LOSSTYPE,PUMPLOC,QLIMIT,PPFLAG,PUMPCAP
0.5 1.0 20.0                        ; 2c.   Rw,Rskin,Kskin
1007.0 982.0 556 95                 ; 2d.   ztop,zbotm,row,col
491   -1                    ; 2a.   WELLID,NNODES
SKIN 0 0 0 0                        ; 2b.   LOSSTYPE,PUMPLOC,QLIMIT,PPFLAG,PUMPCAP
0.5 1.0 20.0                        ; 2c.   Rw,Rskin,Kskin
1064.0 1059.3 549 121                 ; 2d.   ztop,zbotm,row,col
492   -1                    ; 2a.   WELLID,NNODES
SKIN 0 0 0 0                        ; 2b.   LOSSTYPE,PUMPLOC,QLIMIT,PPFLAG,PUMPCAP
0.5 1.0 20.0                        ; 2c.   Rw,Rskin,Kskin
1026.0 1006.0 548 121                 ; 2d.   ztop,zbotm,row,col
494   -1                    ; 2a.   WELLID,NNODES
SKIN 0 0 0 0                        ; 2b.   LOSSTYPE,PUMPLOC,QLIMIT,PPFLAG,PUMPCAP
0.5 1.0 20.0                        ; 2c.   Rw,Rskin,Kskin
716.0 708.0 508 325                 ; 2d.   ztop,zbotm,row,col
495   -1                    ; 2a.   WELLID,NNODES
SKIN 0 0 0 0                        ; 2b.   LOSSTYPE,PUMPLOC,QLIMIT,PPFLAG,PUMPCAP
0.5 1.0 20.0                        ; 2c.   Rw,Rskin,Kskin
766.0 758.0 508 325                 ; 2d.   ztop,zbotm,row,col
496   -1                    ; 2a.   WELLID,NNODES
SKIN 0 0 0 0                        ; 2b.   LOSSTYPE,PUMPLOC,QLIMIT,PPFLAG,PUMPCAP
0.5 1.0 20.0                        ; 2c.   Rw,Rskin,Kskin
728.0 714.0 508 325                 ; 2d.   ztop,zbotm,row,col
497   -1                    ; 2a.   WELLID,NNODES
SKIN 0 0 0 0                        ; 2b.   LOSSTYPE,PUMPLOC,QLIMIT,PPFLAG,PUMPCAP
0.5 1.0 20.0                        ; 2c.   Rw,Rskin,Kskin
673.0 653.0 509 326                 ; 2d.   ztop,zbotm,row,col
504   -1                    ; 2a.   WELLID,NNODES
SKIN 0 0 0 0                        ; 2b.   LOSSTYPE,PUMPLOC,QLIMIT,PPFLAG,PUMPCAP
0.5 1.0 20.0                        ; 2c.   Rw,Rskin,Kskin
1035.0 1023.0 548 109                 ; 2d.   ztop,zbotm,row,col
505   -1                    ; 2a.   WELLID,NNODES
SKIN 0 0 0 0                        ; 2b.   LOSSTYPE,PUMPLOC,QLIMIT,PPFLAG,PUMPCAP
0.5 1.0 20.0                        ; 2c.   Rw,Rskin,Kskin
1035.0 1019.0 549 110                 ; 2d.   ztop,zbotm,row,col
508   -1                    ; 2a.   WELLID,NNODES
SKIN 0 0 0 0                        ; 2b.   LOSSTYPE,PUMPLOC,QLIMIT,PPFLAG,PUMPCAP
0.5 1.0 20.0                        ; 2c.   Rw,Rskin,Kskin
1507.0 1506.0 102 159                 ; 2d.   ztop,zbotm,row,col
509   -1                    ; 2a.   WELLID,NNODES
SKIN 0 0 0 0                        ; 2b.   LOSSTYPE,PUMPLOC,QLIMIT,PPFLAG,PUMPCAP
0.5 1.0 20.0                        ; 2c.   Rw,Rskin,Kskin
1516.0 1510.0 102 158                 ; 2d.   ztop,zbotm,row,col
510   -1                    ; 2a.   WELLID,NNODES
SKIN 0 0 0 0                        ; 2b.   LOSSTYPE,PUMPLOC,QLIMIT,PPFLAG,PUMPCAP
0.5 1.0 20.0                        ; 2c.   Rw,Rskin,Kskin
1577.0 1557.0 72 139                 ; 2d.   ztop,zbotm,row,col
514   -1                    ; 2a.   WELLID,NNODES
SKIN 0 0 0 0                        ; 2b.   LOSSTYPE,PUMPLOC,QLIMIT,PPFLAG,PUMPCAP
0.5 1.0 20.0                        ; 2c.   Rw,Rskin,Kskin
1012.0 992.0 551 106                 ; 2d.   ztop,zbotm,row,col
515   -1                    ; 2a.   WELLID,NNODES
SKIN 0 0 0 0                        ; 2b.   LOSSTYPE,PUMPLOC,QLIMIT,PPFLAG,PUMPCAP
0.5 1.0 20.0                        ; 2c.   Rw,Rskin,Kskin
716.0 507.0 537 365                 ; 2d.   ztop,zbotm,row,col
521   -1                    ; 2a.   WELLID,NNODES
SKIN 0 0 0 0                        ; 2b.   LOSSTYPE,PUMPLOC,QLIMIT,PPFLAG,PUMPCAP
0.5 1.0 20.0                        ; 2c.   Rw,Rskin,Kskin
755.0 595.0 806 147                 ; 2d.   ztop,zbotm,row,col
524   -1                    ; 2a.   WELLID,NNODES
SKIN 0 0 0 0                        ; 2b.   LOSSTYPE,PUMPLOC,QLIMIT,PPFLAG,PUMPCAP
0.5 1.0 20.0                        ; 2c.   Rw,Rskin,Kskin
894.0 874.0 752 470                 ; 2d.   ztop,zbotm,row,col
525   -1                    ; 2a.   WELLID,NNODES
SKIN 0 0 0 0                        ; 2b.   LOSSTYPE,PUMPLOC,QLIMIT,PPFLAG,PUMPCAP
0.5 1.0 20.0                        ; 2c.   Rw,Rskin,Kskin
894.0 874.0 752 470                 ; 2d.   ztop,zbotm,row,col
532   -1                    ; 2a.   WELLID,NNODES
SKIN 0 0 0 0                        ; 2b.   LOSSTYPE,PUMPLOC,QLIMIT,PPFLAG,PUMPCAP
0.5 1.0 20.0                        ; 2c.   Rw,Rskin,Kskin
1446.0 1414.0 296 197                 ; 2d.   ztop,zbotm,row,col
544   -1                    ; 2a.   WELLID,NNODES
SKIN 0 0 0 0                        ; 2b.   LOSSTYPE,PUMPLOC,QLIMIT,PPFLAG,PUMPCAP
0.5 1.0 20.0                        ; 2c.   Rw,Rskin,Kskin
996.0 981.0 563 82                 ; 2d.   ztop,zbotm,row,col
545   -1                    ; 2a.   WELLID,NNODES
SKIN 0 0 0 0                        ; 2b.   LOSSTYPE,PUMPLOC,QLIMIT,PPFLAG,PUMPCAP
0.5 1.0 20.0                        ; 2c.   Rw,Rskin,Kskin
994.0 969.0 562 82                 ; 2d.   ztop,zbotm,row,col
546   -1                    ; 2a.   WELLID,NNODES
SKIN 0 0 0 0                        ; 2b.   LOSSTYPE,PUMPLOC,QLIMIT,PPFLAG,PUMPCAP
0.5 1.0 20.0                        ; 2c.   Rw,Rskin,Kskin
997.2 964.0 562 82                 ; 2d.   ztop,zbotm,row,col
547   -1                    ; 2a.   WELLID,NNODES
SKIN 0 0 0 0                        ; 2b.   LOSSTYPE,PUMPLOC,QLIMIT,PPFLAG,PUMPCAP
0.5 1.0 20.0                        ; 2c.   Rw,Rskin,Kskin
1001.0 976.0 562 82                 ; 2d.   ztop,zbotm,row,col
548   -1                    ; 2a.   WELLID,NNODES
SKIN 0 0 0 0                        ; 2b.   LOSSTYPE,PUMPLOC,QLIMIT,PPFLAG,PUMPCAP
0.5 1.0 20.0                        ; 2c.   Rw,Rskin,Kskin
997.0 982.0 562 81                 ; 2d.   ztop,zbotm,row,col
549   -1                    ; 2a.   WELLID,NNODES
SKIN 0 0 0 0                        ; 2b.   LOSSTYPE,PUMPLOC,QLIMIT,PPFLAG,PUMPCAP
0.5 1.0 20.0                        ; 2c.   Rw,Rskin,Kskin
989.0 971.0 562 82                 ; 2d.   ztop,zbotm,row,col
550   -1                    ; 2a.   WELLID,NNODES
SKIN 0 0 0 0                        ; 2b.   LOSSTYPE,PUMPLOC,QLIMIT,PPFLAG,PUMPCAP
0.5 1.0 20.0                        ; 2c.   Rw,Rskin,Kskin
996.0 971.0 562 81                 ; 2d.   ztop,zbotm,row,col
551   -1                    ; 2a.   WELLID,NNODES
SKIN 0 0 0 0                        ; 2b.   LOSSTYPE,PUMPLOC,QLIMIT,PPFLAG,PUMPCAP
0.5 1.0 20.0                        ; 2c.   Rw,Rskin,Kskin
1000.0 975.0 562 81                 ; 2d.   ztop,zbotm,row,col
552   -1                    ; 2a.   WELLID,NNODES
SKIN 0 0 0 0                        ; 2b.   LOSSTYPE,PUMPLOC,QLIMIT,PPFLAG,PUMPCAP
0.5 1.0 20.0                        ; 2c.   Rw,Rskin,Kskin
1002.0 984.0 561 82                 ; 2d.   ztop,zbotm,row,col
553   -1                    ; 2a.   WELLID,NNODES
SKIN 0 0 0 0                        ; 2b.   LOSSTYPE,PUMPLOC,QLIMIT,PPFLAG,PUMPCAP
0.5 1.0 20.0                        ; 2c.   Rw,Rskin,Kskin
999.0 979.0 561 82                 ; 2d.   ztop,zbotm,row,col
555   -1                    ; 2a.   WELLID,NNODES
SKIN 0 0 0 0                        ; 2b.   LOSSTYPE,PUMPLOC,QLIMIT,PPFLAG,PUMPCAP
0.5 1.0 20.0                        ; 2c.   Rw,Rskin,Kskin
1002.0 990.0 650 147                 ; 2d.   ztop,zbotm,row,col
556   -1                    ; 2a.   WELLID,NNODES
SKIN 0 0 0 0                        ; 2b.   LOSSTYPE,PUMPLOC,QLIMIT,PPFLAG,PUMPCAP
0.5 1.0 20.0                        ; 2c.   Rw,Rskin,Kskin
1134.5 1117.0 407 203                 ; 2d.   ztop,zbotm,row,col
557   -1                    ; 2a.   WELLID,NNODES
SKIN 0 0 0 0                        ; 2b.   LOSSTYPE,PUMPLOC,QLIMIT,PPFLAG,PUMPCAP
0.5 1.0 20.0                        ; 2c.   Rw,Rskin,Kskin
1135.0 1115.0 407 203                 ; 2d.   ztop,zbotm,row,col
558   -1                    ; 2a.   WELLID,NNODES
SKIN 0 0 0 0                        ; 2b.   LOSSTYPE,PUMPLOC,QLIMIT,PPFLAG,PUMPCAP
0.5 1.0 20.0                        ; 2c.   Rw,Rskin,Kskin
1134.0 1119.0 407 203                 ; 2d.   ztop,zbotm,row,col
564   -1                    ; 2a.   WELLID,NNODES
SKIN 0 0 0 0                        ; 2b.   LOSSTYPE,PUMPLOC,QLIMIT,PPFLAG,PUMPCAP
0.5 1.0 20.0                        ; 2c.   Rw,Rskin,Kskin
1117.0 967.794677734 541 174                 ; 2d.   ztop,zbotm,row,col
575   -1                    ; 2a.   WELLID,NNODES
SKIN 0 0 0 0                        ; 2b.   LOSSTYPE,PUMPLOC,QLIMIT,PPFLAG,PUMPCAP
0.5 1.0 20.0                        ; 2c.   Rw,Rskin,Kskin
608.0 598.0 564 327                 ; 2d.   ztop,zbotm,row,col
576   -1                    ; 2a.   WELLID,NNODES
SKIN 0 0 0 0                        ; 2b.   LOSSTYPE,PUMPLOC,QLIMIT,PPFLAG,PUMPCAP
0.5 1.0 20.0                        ; 2c.   Rw,Rskin,Kskin
618.0 605.0 564 327                 ; 2d.   ztop,zbotm,row,col
577   -1                    ; 2a.   WELLID,NNODES
SKIN 0 0 0 0                        ; 2b.   LOSSTYPE,PUMPLOC,QLIMIT,PPFLAG,PUMPCAP
0.5 1.0 20.0                        ; 2c.   Rw,Rskin,Kskin
703.0 662.0 564 329                 ; 2d.   ztop,zbotm,row,col
578   -1                    ; 2a.   WELLID,NNODES
SKIN 0 0 0 0                        ; 2b.   LOSSTYPE,PUMPLOC,QLIMIT,PPFLAG,PUMPCAP
0.5 1.0 20.0                        ; 2c.   Rw,Rskin,Kskin
769.0 598.0 564 328                 ; 2d.   ztop,zbotm,row,col
579   -1                    ; 2a.   WELLID,NNODES
SKIN 0 0 0 0                        ; 2b.   LOSSTYPE,PUMPLOC,QLIMIT,PPFLAG,PUMPCAP
0.5 1.0 20.0                        ; 2c.   Rw,Rskin,Kskin
626.0 596.0 564 328                 ; 2d.   ztop,zbotm,row,col
580   -1                    ; 2a.   WELLID,NNODES
SKIN 0 0 0 0                        ; 2b.   LOSSTYPE,PUMPLOC,QLIMIT,PPFLAG,PUMPCAP
0.5 1.0 20.0                        ; 2c.   Rw,Rskin,Kskin
777.0 603.0 564 327                 ; 2d.   ztop,zbotm,row,col
581   -1                    ; 2a.   WELLID,NNODES
SKIN 0 0 0 0                        ; 2b.   LOSSTYPE,PUMPLOC,QLIMIT,PPFLAG,PUMPCAP
0.5 1.0 20.0                        ; 2c.   Rw,Rskin,Kskin
747.0 573.0 564 326                 ; 2d.   ztop,zbotm,row,col
588   -1                    ; 2a.   WELLID,NNODES
SKIN 0 0 0 0                        ; 2b.   LOSSTYPE,PUMPLOC,QLIMIT,PPFLAG,PUMPCAP
0.5 1.0 20.0                        ; 2c.   Rw,Rskin,Kskin
726.0 706.0 755 217                 ; 2d.   ztop,zbotm,row,col
589   -1                    ; 2a.   WELLID,NNODES
SKIN 0 0 0 0                        ; 2b.   LOSSTYPE,PUMPLOC,QLIMIT,PPFLAG,PUMPCAP
0.5 1.0 20.0                        ; 2c.   Rw,Rskin,Kskin
682.0 647.0 755 217                 ; 2d.   ztop,zbotm,row,col
613   -1                    ; 2a.   WELLID,NNODES
SKIN 0 0 0 0                        ; 2b.   LOSSTYPE,PUMPLOC,QLIMIT,PPFLAG,PUMPCAP
0.5 1.0 20.0                        ; 2c.   Rw,Rskin,Kskin
1173.0 1143.0 310 76                 ; 2d.   ztop,zbotm,row,col
616   -1                    ; 2a.   WELLID,NNODES