# Basic package file for MODFLOW, generated by Flopy.
FREE
open/close  FWP1L_escarp_noflow2.ib1      1  (FREE)  -1 #ibound Layer 1                
           -999
external 77    1  (BINARY)  -1