# MODFLOW-NWT RCH Package
# File generated on 06/09/2015 14:47:30
         3        50
         1        -1 # Stress period 1
OPEN/CLOSE 'FWP1L_swb_rch_mult.dat'   1 (FREE)  -1